113   
   
Au 1.787 1.281 0.000
Au 0.309 2.759 2.090
Au 1.787 1.281 4.180
Au 0.309 2.759 6.270
Au 4.743 1.281 0.000
Au 3.265 2.759 2.090
Au 4.743 1.281 4.180
Au 3.265 2.759 6.270
Au 7.699 1.281 0.000
Au 6.221 2.759 2.090
Au 7.699 1.281 4.180
Au 6.221 2.759 6.270
Au 1.787 4.236 0.000
Au 0.309 5.714 2.090
Au 1.787 4.236 4.180
Au 0.309 5.714 6.270
Au 4.743 4.236 0.000
Au 3.265 5.714 2.090
Au 4.743 4.236 4.180
Au 3.265 5.714 6.270
Au 7.699 4.236 0.000
Au 6.221 5.714 2.090
Au 7.699 4.236 4.180
Au 6.221 5.714 6.270
Au 1.787 7.192 0.000
Au 0.309 8.670 2.090
Au 1.787 7.192 4.180
Au 0.309 8.670 6.270
Au 4.743 7.192 0.000
Au 3.265 8.670 2.090
Au 4.743 7.192 4.180
Au 3.265 8.670 6.270
Au 7.699 7.192 0.000
Au 6.221 8.670 2.090
Au 7.699 7.192 4.180
Au 6.221 8.670 6.270
Au 1.787 1.281 8.360
Au 1.787 4.236 8.360
Au 1.787 7.192 8.360
Au 4.743 1.281 8.360
Au 4.743 4.236 8.360
Au 4.743 7.192 8.360
Au 7.699 1.281 8.360
Au 7.699 4.236 8.360
Au 7.699 7.192 8.360
Au 0.309 2.759 10.450
Au 0.309 5.714 10.450
Au 0.309 8.670 10.450
Au 3.265 2.759 10.450
Au 3.265 5.714 10.450
Au 3.265 8.670 10.450
Au 6.221 2.759 10.450
Au 6.221 5.714 10.450
Au 6.221 8.670 10.450
Au 1.758 4.208 12.438
Au 1.758 7.222 12.439
Au 4.772 4.208 12.438
Au 4.772 7.222 12.439
Au 3.265 5.714 14.358
Au 3.268 5.748 17.023
H 3.252 5.719 18.901
H 3.256 5.725 19.771
Au 3.243 5.717 21.653
Au 3.262 5.716 24.303
Au 1.772 4.220 26.274
Au 1.771 7.208 26.275
Au 4.758 4.221 26.273
Au 4.759 7.207 26.274
Au 0.309 2.759 28.270
Au 0.309 5.714 28.270
Au 0.309 8.670 28.270
Au 3.265 2.759 28.270
Au 3.265 5.714 28.270
Au 3.265 8.670 28.270
Au 6.221 2.759 28.270
Au 6.221 5.714 28.270
Au 6.221 8.670 28.270
Au 1.787 1.281 30.360
Au 0.309 2.759 32.450
Au 1.787 1.281 34.540
Au 0.309 2.759 36.630
Au 4.743 1.281 30.360
Au 3.265 2.759 32.450
Au 4.743 1.281 34.540
Au 3.265 2.759 36.630
Au 7.699 1.281 30.360
Au 6.221 2.759 32.450
Au 7.699 1.281 34.540
Au 6.221 2.759 36.630
Au 1.787 4.236 30.360
Au 0.309 5.714 32.450
Au 1.787 4.236 34.540
Au 0.309 5.714 36.630
Au 4.743 4.236 30.360
Au 3.265 5.714 32.450
Au 4.743 4.236 34.540
Au 3.265 5.714 36.630
Au 7.699 4.236 30.360
Au 6.221 5.714 32.450
Au 7.699 4.236 34.540
Au 6.221 5.714 36.630
Au 1.787 7.192 30.360
Au 0.309 8.670 32.450
Au 1.787 7.192 34.540
Au 0.309 8.670 36.630
Au 4.743 7.192 30.360
Au 3.265 8.670 32.450
Au 4.743 7.192 34.540
Au 3.265 8.670 36.630
Au 7.699 7.192 30.360
Au 6.221 8.670 32.450
Au 7.699 7.192 34.540
Au 6.221 8.670 36.630
