906   
   
Au 0.0000000000 3.4279000000 0.0000000000
Au 0.0000000000 8.5697463936 0.0000000000
Au 0.0000000000 13.7115927871 0.0000000000
Au 1.4843231997 0.8569768032 0.0000000000
Au 1.4843231997 5.9988231968 0.0000000000
Au 1.4843231997 11.1406695903 0.0000000000
Au 2.9686463995 3.4279000000 0.0000000000
Au 2.9686463995 8.5697463936 0.0000000000
Au 2.9686463995 13.7115927871 0.0000000000
Au 4.4529695992 0.8569768032 0.0000000000
Au 4.4529695992 5.9988231968 0.0000000000
Au 4.4529695992 11.1406695903 0.0000000000
Au 5.9372927989 3.4279000000 0.0000000000
Au 5.9372927989 8.5697463936 0.0000000000
Au 5.9372927989 13.7115927871 0.0000000000
Au 7.4216159986 0.8569768032 0.0000000000
Au 7.4216159986 11.1406695903 0.0000000000
Au 7.4216159986 5.9988231968 0.0000000000
Au 8.9059391984 3.4279000000 0.0000000000
Au 8.9059391984 13.7115927871 0.0000000000
Au 8.9059391984 8.5697463936 0.0000000000
Au 10.3902623981 5.9988231968 0.0000000000
Au 10.3902623981 0.8569768032 0.0000000000
Au 10.3902623981 11.1406695903 0.0000000000
Au 11.8745855978 3.4279000000 0.0000000000
Au 11.8745855978 8.5697463936 0.0000000000
Au 11.8745855978 13.7115927871 0.0000000000
Au 13.3589087975 0.8569768032 0.0000000000
Au 13.3589087975 5.9988231968 0.0000000000
Au 13.3589087975 11.1406695903 0.0000000000
Au 14.8432319973 3.4279000000 0.0000000000
Au 14.8432319973 13.7115927871 0.0000000000
Au 14.8432319973 8.5697463936 0.0000000000
Au 16.3275551970 0.8569768032 0.0000000000
Au 16.3275551970 5.9988231968 0.0000000000
Au 16.3275551970 11.1406695903 0.0000000000
Au -0.0000000000 6.8557975957 2.4238896351
Au 0.0000000000 1.7139512021 2.4238896351
Au 0.0000000000 11.9976439893 2.4238896351
Au 1.4843231997 9.4267207925 2.4238896351
Au 1.4843231997 14.5685671861 2.4238896351
Au 1.4843231997 4.2848743989 2.4238896351
Au 2.9686463995 6.8557975957 2.4238896351
Au 2.9686463995 11.9976439893 2.4238896351
Au 2.9686463995 1.7139512021 2.4238896351
Au 4.4529695992 14.5685671861 2.4238896351
Au 4.4529695992 9.4267207925 2.4238896351
Au 4.4529695992 4.2848743989 2.4238896351
Au 5.9372927989 1.7139512021 2.4238896351
Au 5.9372927989 6.8557975957 2.4238896351
Au 5.9372927989 11.9976439893 2.4238896351
Au 7.4216159986 14.5685671861 2.4238896351
Au 7.4216159986 4.2848743989 2.4238896351
Au 7.4216159986 9.4267207925 2.4238896351
Au 8.9059391984 6.8557975957 2.4238896351
Au 8.9059391984 1.7139512021 2.4238896351
Au 8.9059391984 11.9976439893 2.4238896351
Au 10.3902623981 9.4267207925 2.4238896351
Au 10.3902623981 4.2848743989 2.4238896351
Au 10.3902623981 14.5685671861 2.4238896351
Au 11.8745855978 1.7139512021 2.4238896351
Au 11.8745855978 6.8557975957 2.4238896351
Au 11.8745855978 11.9976439893 2.4238896351
Au 13.3589087975 4.2848743989 2.4238896351
Au 13.3589087975 9.4267207925 2.4238896351
Au 13.3589087975 14.5685671861 2.4238896351
Au 14.8432319973 1.7139512021 2.4238896351
Au 14.8432319973 6.8557975957 2.4238896351
Au 14.8432319973 11.9976439893 2.4238896351
Au 16.3275551970 4.2848743989 2.4238896351
Au 16.3275551970 9.4267207925 2.4238896351
Au 16.3275551970 14.5685671861 2.4238896351
Au 0.0000000000 0.0000024043 4.8477792703
Au 0.0000000000 5.1418487979 4.8477792703
Au 0.0000000000 10.2836951914 4.8477792703
Au 1.4843231997 2.5709256011 4.8477792703
Au 1.4843231997 7.7127719946 4.8477792703
Au 1.4843231997 12.8546183882 4.8477792703
Au 2.9686463995 0.0000024043 4.8477792703
Au 2.9686463995 5.1418487979 4.8477792703
Au 2.9686463995 10.2836951914 4.8477792703
Au 4.4529695992 2.5709256011 4.8477792703
Au 4.4529695992 7.7127719946 4.8477792703
Au 4.4529695992 12.8546183882 4.8477792703
Au 5.9372927989 0.0000024043 4.8477792703
Au 5.9372927989 5.1418487979 4.8477792703
Au 5.9372927989 10.2836951914 4.8477792703
Au 7.4216159986 2.5709256011 4.8477792703
Au 7.4216159986 12.8546183882 4.8477792703
Au 7.4216159986 7.7127719946 4.8477792703
Au 8.9059391984 0.0000024043 4.8477792703
Au 8.9059391984 5.1418487979 4.8477792703
Au 8.9059391984 10.2836951914 4.8477792703
Au 10.3902623981 7.7127719946 4.8477792703
Au 10.3902623981 2.5709256011 4.8477792703
Au 10.3902623981 12.8546183882 4.8477792703
Au 11.8745855978 0.0000024043 4.8477792703
Au 11.8745855978 5.1418487979 4.8477792703
Au 11.8745855978 10.2836951914 4.8477792703
Au 13.3589087975 2.5709256011 4.8477792703
Au 13.3589087975 7.7127719946 4.8477792703
Au 13.3589087975 12.8546183882 4.8477792703
Au 14.8432319973 0.0000024043 4.8477792703
Au 14.8432319973 5.1418487979 4.8477792703
Au 14.8432319973 10.2836951914 4.8477792703
Au 16.3275551970 2.5709256011 4.8477792703
Au 16.3275551970 7.7127719946 4.8477792703
Au 16.3275551970 12.8546183882 4.8477792703
Au 0.0000000000 3.4279000000 7.2716700000
Au 0.0000000000 8.5697463936 7.2716700000
Au 0.0000000000 13.7115927871 7.2716700000
Au 1.4843231997 0.8569768032 7.2716700000
Au 1.4843231997 5.9988231968 7.2716700000
Au 1.4843231997 11.1406695903 7.2716700000
Au 2.9686463995 3.4279000000 7.2716700000
Au 2.9686463995 8.5697463936 7.2716700000
Au 2.9686463995 13.7115927871 7.2716700000
Au 4.4529695992 0.8569768032 7.2716700000
Au 4.4529695992 5.9988231968 7.2716700000
Au 4.4529695992 11.1406695903 7.2716700000
Au 5.9372927989 3.4279000000 7.2716700000
Au 5.9372927989 8.5697463936 7.2716700000
Au 5.9372927989 13.7115927871 7.2716700000
Au 7.4216159986 0.8569768032 7.2716700000
Au 7.4216159986 11.1406695903 7.2716700000
Au 7.4216159986 5.9988231968 7.2716700000
Au 8.9059391984 3.4279000000 7.2716700000
Au 8.9059391984 13.7115927871 7.2716700000
Au 8.9059391984 8.5697463936 7.2716700000
Au 10.3902623981 5.9988231968 7.2716700000
Au 10.3902623981 0.8569768032 7.2716700000
Au 10.3902623981 11.1406695903 7.2716700000
Au 11.8745855978 3.4279000000 7.2716700000
Au 11.8745855978 8.5697463936 7.2716700000
Au 11.8745855978 13.7115927871 7.2716700000
Au 13.3589087975 0.8569768032 7.2716700000
Au 13.3589087975 5.9988231968 7.2716700000
Au 13.3589087975 11.1406695903 7.2716700000
Au 14.8432319973 3.4279000000 7.2716700000
Au 14.8432319973 13.7115927871 7.2716700000
Au 14.8432319973 8.5697463936 7.2716700000
Au 16.3275551970 0.8569768032 7.2716700000
Au 16.3275551970 5.9988231968 7.2716700000
Au 16.3275551970 11.1406695903 7.2716700000
Au 6.0618870000 12.1502450000 9.4686660000
Au 16.2392940000 9.3693080000 9.4722830000
Au 0.0861140000 12.0714240000 9.5137030000
Au 13.3636000000 14.6286950000 9.5317350000
Au 11.9122170000 1.7775350000 9.5492990000
Au 0.0219360000 6.8740000000 9.5589680000
Au 5.9817780000 1.7473430000 9.5629810000
Au 4.2946830000 14.7605890000 9.5633860000
Au 7.5626680000 9.5314060000 9.5670610000
Au 3.1739050000 11.9443380000 9.5739820000
Au 4.6638900000 4.3057330000 9.5744430000
Au 14.9990370000 12.0717000000 9.5818500000
Au 8.9103880000 1.7453790000 9.5845190000
Au 1.4202950000 14.7215370000 9.5856910000
Au 9.0110480000 6.8647160000 9.5926900000
Au 4.5733390000 9.4594080000 9.5980090000
Au 11.8406780000 6.8964720000 9.6064840000
Au 10.3862000000 4.2948800000 9.6497080000
Au 16.3799270000 4.1554890000 9.6519450000
Au 1.5676280000 9.3241740000 9.6567270000
Au 13.2402760000 4.3415350000 9.6620260000
Au 10.3058420000 14.5940850000 9.6640320000
Au 7.3643620000 4.3587020000 9.6647080000
Au 3.1014590000 6.8659790000 9.6650120000
Au 10.3726740000 9.5744100000 9.6745420000
Au 11.9207840000 11.9883680000 9.6747910000
Au 14.8138340000 6.7419920000 9.6804180000
Au 13.4548550000 9.4302320000 9.6818810000
Au 1.5348500000 4.3197630000 9.6983770000
Au 0.0842230000 1.7158250000 9.7014160000
Au 3.0355750000 1.9095200000 9.7140260000
Au 8.9169490000 12.1158880000 9.7236310000
Au 15.0208220000 1.7159780000 9.7514400000
Au 7.4556640000 14.6922640000 9.7527530000
Au 6.0988550000 7.0969420000 9.7543230000
Au 16.3050940000 14.4879780000 9.7809790000
Au 1.3975440000 12.8588050000 11.8643950000
Au 17.6884944000 10.0169670000 11.8912800000
Au 5.7914230000 15.3339941800 11.9105510000
Au 4.4278680000 12.8692140000 11.9115570000
Au 8.7244880000 5.0892720000 11.9326890000
Au 13.3339250000 7.6300750000 11.9603980000
Au 17.7905474000 5.1315210000 11.9624210000
Au 7.5353450000 8.2045440000 11.9673550000
Au 10.4120030000 7.6040070000 11.9873230000
Au 2.9095050000 0.1601700000 12.0016610000
Au 11.9158800000 10.2976190000 12.0129470000
Au 11.9354880000 0.1066950000 12.0241500000
Au 1.5150090000 7.6540330000 12.0258350000
Au 7.0835480000 2.4202860000 12.0365520000
Au 16.2354280000 12.7721280000 12.0454900000
Au 11.7860450000 4.9202010000 12.0465650000
Au 14.8135800000 0.0785140000 12.0497290000
Au 16.2040670000 7.6874780000 12.0666330000
Au 10.3979190000 2.4712480000 12.0722860000
Au 3.0990240000 5.2830830000 12.0781440000
Au 14.8243470000 4.9494130000 12.0920310000
Au 0.1443950000 0.0387210000 12.1056590000
Au 13.3405220000 12.9526140000 12.1128960000
Au 4.4382540000 7.7960380000 12.1186660000
Au 5.8206470000 10.3633510000 12.1236700000
Au 10.4163880000 13.0069850000 12.1393510000
Au 16.4610810000 2.5451050000 12.1481360000
Au 4.3255070000 2.6701450000 12.1603370000
Au 14.8661160000 10.1702700000 12.1646820000
Au 2.8690690000 10.2684540000 12.1676810000
Au 1.4520970000 2.7160540000 12.1681530000
Au 7.5102350000 12.8284760000 12.1689610000
Au 8.8523020000 0.0007230000 12.2040940000
Au 5.8296050000 5.2655320000 12.2118640000
Au 13.3677850000 2.5585700000 12.3027120000
Au 9.0291180000 10.5125070000 12.3044290000
H 3.2594420000 3.9863780000 14.1947790000
Au 9.9767050000 5.7141400000 14.2104560000
H 4.1616110000 13.5611720000 14.2390080000
Au 7.1694600000 6.5254670000 14.2476770000
H 12.4730610000 6.3151680000 14.2731050000
H 11.5502970000 14.0766301800 14.3231510000
H 0.1522670000 1.6165700000 14.3399960000
O 16.9288014000 12.5851650000 14.3821200000
H 13.4032350000 8.8072990000 14.4184980000
H 16.6871714000 11.5986390000 14.4513230000
Au 8.9947300000 8.5407140000 14.4657790000
O 2.7070420000 9.7364340000 14.4701650000
H 3.8160510000 1.1573690000 14.4841230000
H 0.1489940000 12.7216450000 14.5064040000
H 7.2435170000 9.7036720000 14.6956360000
H 7.6236000000 14.2958440000 14.7594460000
O 7.4265610000 13.3539440000 14.8029890000
H 2.3364020000 10.6130180000 14.8299260000
H 6.8538300000 11.2036080000 14.8313920000
H 7.4550550000 1.3090398200 14.8430580000
H 14.9692620000 10.3081520000 14.8498340000
O 13.0797450000 6.8038170000 14.8616060000
H 1.8022950000 8.2079590000 14.8956320000
H 11.1985410000 1.6798940000 14.9013610000
O 16.8311210000 8.0286950000 14.9390350000
H 13.9134310000 6.3734690000 14.9464840000
H 13.2045560000 11.5496500000 14.9781560000
H 17.8069460000 7.6503190000 14.9980440000
H 2.5088780000 12.6707360000 15.0320370000
O 13.3683300000 3.6798790000 15.0344690000
H 0.6548840000 4.0666170000 15.0409890000
H 15.7843690000 14.1281530000 15.0652160000
O 13.2571420000 9.5143800000 15.0773060000
O 3.1925810000 4.4778900000 15.0776270000
H 8.2893130000 13.0752480000 15.0909090000
H 6.4280220000 3.9646530000 15.1047780000
H 3.3993610000 9.5409000000 15.1255150000
H 16.2306330000 9.4171100000 15.1275080000
O 0.3163710000 2.1361510000 15.1504400000
O 15.9572190000 10.4056030000 15.1531960000
H 16.3224260000 7.2018480000 15.1759650000
O 3.7880740000 13.7005230000 15.1767770000
H 4.4046300000 5.7013250000 15.1863140000
H 0.8647340000 5.5357130000 15.1968210000
O 1.5152430000 7.3491070000 15.2370950000
O 0.1406360000 4.9294090000 15.2389480000
O 4.3315720000 0.8760560000 15.2606170000
O 11.7003510000 14.1835911800 15.2713510000
O 8.0874820000 0.7365338200 15.2812220000
H 8.9420080000 1.2072428200 15.3022810000
O 6.7919650000 10.4040030000 15.3142290000
O 1.7311900000 12.0935800000 15.3316570000
O 13.5440360000 12.3786230000 15.3596800000
H 12.9239130000 13.1755970000 15.3604390000
H 13.6413390000 2.7812400000 15.3683540000
H 14.0252600000 4.3261390000 15.3937510000
H 16.1834240000 5.2002520000 15.4284640000
H 12.9856870000 0.4561870000 15.4353400000
H 4.6230940000 7.1734190000 15.4419540000
O 6.5134740000 3.0208080000 15.4776040000
H 10.1199060000 11.6340460000 15.4844080000
H 3.8927730000 14.7061280000 15.5154450000
H 11.5408950000 9.5866630000 15.5397590000
O 5.1557150000 6.3121070000 15.5680370000
H 5.5584420000 2.6481370000 15.5720670000
O 15.7047090000 14.9164600000 15.6722900000
H 14.5110340000 0.6871030000 15.6733400000
H 5.2399540000 9.5874690000 15.7076570000
O 9.7928810000 12.5428080000 15.7104430000
O 10.7076190000 1.5354200000 15.7264190000
H 3.2766580000 3.6949230000 15.7272310000
H 0.6378520000 1.4160030000 15.7699410000
H 11.0848000000 13.5464781800 15.7793100000
O 15.3711570000 5.5713880000 15.8327710000
O 13.6223300000 1.0367700000 15.8673040000
H 10.7401640000 0.5411750000 15.8967700000
H 3.6660280000 1.2575800000 15.9158740000
H 16.6372780000 15.1619610000 15.9456940000
H 13.5510350000 9.1651020000 15.9703660000
O 10.6958980000 9.8366600000 15.9779140000
H 11.6737210000 4.1430720000 15.9847170000
O 4.5465510000 8.9121440000 15.9848380000
H 1.3408240000 14.5335420000 15.9854490000
O 10.8374480000 4.5759220000 16.2619570000
H 1.4940630000 7.3726180000 16.3007940000
H 1.7293300000 12.1473190000 16.3761350000
O 1.1405850000 15.3128680000 16.4672500000
H 17.2490480000 2.4415610000 16.5717830000
H 4.7228700000 13.0128770000 16.6269350000
H 7.9210850000 3.1290280000 16.6887350000
H 9.4265450000 3.5250970000 16.7006160000
H 9.5480410000 12.3789230000 16.7251320000
H 10.3847790000 9.2823390000 16.7865130000
H 6.9509900000 0.1296498200 16.7907290000
H 16.4312060000 11.0038370000 16.8078860000
H 11.1095120000 5.2624250000 16.8799540000
Au 8.1428080000 7.7290060000 16.9112740000
H 15.4136740000 5.3785110000 16.9142720000
H 5.7023750000 5.7093500000 16.9555090000
H 4.5223200000 8.9535410000 17.0101020000
O 3.3743800000 2.5574110000 17.0862220000
H 14.2631940000 12.4896170000 17.1164460000
H 12.8216060000 7.8366300000 17.1706530000
H 6.9006730000 10.1884510000 17.2400680000
H 13.1213800000 1.4092520000 17.2678170000
O 8.6663000000 3.2851330000 17.2849580000
O 13.6207970000 8.3179800000 17.3659260000
H 1.1004440000 15.1240790000 17.4347320000
O 5.1985920000 13.0372210000 17.4713390000
H 10.5297590000 7.2277060000 17.4740620000
O 16.9610920000 2.6694570000 17.5094470000
H 5.6504590000 13.9489180000 17.5232480000
H 4.1636730000 2.4162170000 17.5917260000
H 6.1020530000 11.4697850000 17.5962010000
O 11.2206780000 6.5939830000 17.6595390000
O 6.5403410000 15.3345030000 17.6760390000
O 0.9645430000 7.5658740000 17.7012070000
O 16.5637910000 11.0113580000 17.7812440000
H 0.0819780000 11.8772120000 17.7819010000
H 2.5786170000 2.8358290000 17.7876380000
H 15.3979554000 8.1726810000 17.8428380000
O 6.0297400000 5.3955640000 17.8622140000
H 8.0197080000 11.8724610000 17.9333030000
H 16.2694210000 10.0127320000 17.9483510000
O 6.7596320000 10.8160230000 17.9495870000
O 0.9938640000 12.1950070000 17.9794080000
H 6.3837110000 0.8110238200 18.0130010000
H 6.6979510000 6.0776630000 18.0382690000
H 17.7749350000 2.9281480000 18.0474610000
H 16.9945874000 8.1230530000 18.0497810000
H 1.4382850000 8.3287530000 18.0769870000
O 8.9406190000 12.2103700000 18.1048000000
H 15.3512200000 12.0338650000 18.1104400000
O 14.3626880000 12.3619100000 18.1316110000
H 13.3900210000 8.7691600000 18.2049980000
O 12.9585230000 1.4504170000 18.2368170000
H 5.9297110000 3.3864188200 18.2583450000
H 9.7105800000 1.9666000000 18.2898060000
H 1.3089890000 6.7746520000 18.2941760000
O 16.1463544000 8.5993480000 18.2988050000
H 15.9905320000 1.3235298200 18.3974470000
H 16.1747190000 4.2260890000 18.4432650000
O 15.5461730000 5.0211800000 18.4664060000
H 1.0122480000 13.1011990000 18.4666740000
O 5.7733050000 2.4134658200 18.5018570000
H 8.9086240000 13.1014080000 18.5430400000
H 11.3473360000 1.3830340000 18.5594510000
H 14.5398960000 4.5664290000 18.5616020000
O 10.5847470000 9.0601600000 18.6056500000
H 11.1002020000 6.5156660000 18.6298600000
H 13.2560780000 0.6272190000 18.6371710000
H 1.7519240000 10.5144240000 18.6540320000
O 4.5403230000 9.2754890000 18.6980190000
H 13.7505830000 11.1285700000 18.7118790000
H 7.7417570000 14.9304800000 18.7437090000
H 8.4961440000 4.3616810000 18.7447540000
O 1.4318106000 3.2586290000 18.7815470000
H 14.0264050000 13.8194350000 18.8034380000
H 5.3666750000 9.8106970000 18.8741020000
H 13.1856750000 2.8869970000 18.8744480000
O 10.3747170000 1.4918270000 18.8936500000
O 0.6362710000 14.9004760000 18.9511660000
H 5.1268500000 5.9009050000 18.9822300000
H 11.3982560000 9.4321820000 19.0333500000
H 9.3668530000 15.4033950000 19.0599370000
H 17.5014334000 15.3452030000 19.0616690000
H 4.7508370000 8.3664620000 19.0662240000
H 4.6041280000 12.4299750000 19.1051080000
H 1.7298316000 4.1166990000 19.1198090000
H 15.3369260000 0.1571678200 19.1427680000
O 8.6574210000 14.7168650000 19.1765180000
O 16.1401920000 0.7115728200 19.1773830000
O 13.9689450000 14.7251790000 19.1969990000
O 13.4028520000 3.8100690000 19.2253650000
O 1.9242890000 9.7453780000 19.2415140000
H 10.5952140000 11.7947450000 19.2780580000
O 13.3323550000 10.3791070000 19.3001570000
H 9.9157640000 8.9406810000 19.3334220000
H 2.9534420000 9.7924660000 19.3485320000
H 5.4770510000 2.2292538200 19.4272280000
O 1.9318560000 5.7388830000 19.4295000000
O 4.5045980000 6.5483060000 19.5146620000
H 1.6246816000 2.6279300000 19.5277590000
H 12.6040370000 4.1995220000 19.5780290000
Au 7.8920480000 7.6270590000 19.6124980000
H 2.8239760000 5.9851070000 19.7321740000
H 12.1423850000 11.6925440000 19.7424080000
O 8.4959370000 4.7262570000 19.7488910000
H 0.8089370000 14.4651780000 19.7782680000
H 8.8515000000 5.6506860000 19.7807460000
O 11.2893560000 12.2360970000 19.8108560000
H 7.1640410000 10.8307870000 19.9830080000
H 16.1872584000 7.7653990000 20.0920850000
H 15.7463614000 6.3141600000 20.1143360000
H 13.8760730000 10.3784320000 20.1194760000
O 4.4978760000 12.3755150000 20.1216060000
H 13.7343150000 14.7598700000 20.1365690000
H 1.2251100000 5.7961160000 20.1606680000
H 1.8070300000 0.7939120000 20.1709500000
H 0.5772790000 9.5401910000 20.2359420000
O 11.5308640000 5.7080370000 20.2715530000
H 10.0774410000 2.2058490000 20.3347310000
H 4.9915440000 6.6617580000 20.3517470000
H 5.2916560000 11.9645170000 20.5177440000
H 12.1528310000 6.4381690000 20.5979670000
O 15.7959194000 7.0983080000 20.6648120000
O 4.6660060000 1.7175800000 20.6832030000
H 8.4845280000 14.5918060000 20.6961380000
H 2.9987490000 1.6028600000 20.7307070000
H 9.3554800000 3.5899280000 20.7570260000
O 1.9809560000 1.5718940000 20.7646180000
H 15.9348740000 9.9207040000 20.7993790000
O 17.5956204000 9.3787980000 20.8182560000
H 10.9312320000 13.5781390000 20.9037990000
O 6.8095920000 10.7810180000 20.9343090000
H 4.9766470000 0.7568550000 20.9670890000
H 16.4519560000 1.4749000000 20.9798600000
H 4.8684810000 13.9417740000 21.0837070000
H 14.2869700000 3.3738410000 21.0917150000
H 10.9872470000 5.5884520000 21.1225650000
H 7.3511810000 4.5323180000 21.1302940000
O 9.8475170000 2.8084050000 21.1408440000
O 15.1172450000 10.3176420000 21.2182120000
H 17.1553634000 6.4099510000 21.3132540000
H 15.4805080000 11.2471740000 21.3526860000
O 0.1514120000 5.7224140000 21.4148090000
O 5.3915050000 14.6937510000 21.4690400000
H 5.0789890000 2.1621330000 21.5091750000
H 1.2496680000 11.1062930000 21.5098220000
H 7.1227470000 14.5333140000 21.5315940000
H 7.4559120000 11.2475040000 21.5417050000
H 5.1925050000 10.1455030000 21.5591620000
O 10.5477730000 9.5971290000 21.6343090000
O 8.1234560000 14.5000810000 21.6380860000
O 13.6304760000 0.3589750000 21.6506840000
H 17.7495460000 1.1264850000 21.6536940000
H 10.0080900000 10.3815160000 21.6631680000
H 0.1678390000 9.1764020000 21.6656450000
O 11.1024500000 14.2385140000 21.6717670000
H 13.8186500000 1.3713800000 21.7024030000
H 9.8980730000 8.9259080000 21.8154780000
O 1.2840920000 13.9179881800 21.8404200000
O 16.8567200000 1.4718590000 21.8456840000
H 1.9713970000 13.2027981800 21.8720960000
H 3.5704230000 10.4408000000 21.8828090000
O 2.1523090000 11.2080740000 21.9059930000
H 13.8197084000 8.2663740000 21.9777030000
O 6.9941940000 4.6392870000 22.0203960000
O 14.2682430000 2.9808350000 22.0638010000
H 12.7969780000 0.1249480000 22.0834190000
H 0.7396100000 6.1588120000 22.1013790000
H 17.6113094000 12.8749330000 22.1407370000
H 7.2209830000 5.6034920000 22.2368080000
O 4.4566190000 10.1206900000 22.2632840000
H 10.3222860000 14.2680360000 22.2775250000
H 8.7922060000 1.8995780000 22.3281870000
H 13.3192620000 3.2480600000 22.3320070000
Au 7.7942400000 7.8975460000 22.3681680000
H 10.9708190000 3.2051680000 22.3877940000
H 0.1185660000 4.3437500000 22.3888510000
O 13.4550354000 7.5731280000 22.4873270000
H 5.2214840000 14.5277400000 22.5000530000
O 16.7395254000 12.6082490000 22.5126040000
H 12.1594130000 13.4629780000 22.5411270000
H 4.5330880000 8.4109280000 22.5506660000
H 8.5161000000 13.0098520000 22.5572570000
H 14.0918754000 6.7995110000 22.5650090000
H 14.7542920000 14.9382101800 22.5782720000
O 4.5015670000 7.3909040000 22.5849770000
O 8.7982250000 12.0386180000 22.5931480000
H 1.5416720000 14.5660491800 22.5968180000
H 11.8972800000 10.1362240000 22.7661580000
H 8.3992120000 0.4600940000 22.7830630000
H 17.3036634000 2.9434910000 22.8488580000
H 3.1209980000 6.7129060000 22.8710600000
H 5.8985610000 3.6680480000 22.8894280000
H 9.7400200000 6.5480830000 22.9040580000
H 2.0147470000 11.4202750000 22.9122070000
O 10.4804740000 5.8573010000 22.9250380000
H 15.6633614000 5.0982280000 22.9938730000
H 5.4269200000 7.1608080000 23.0478710000
O 8.3633690000 1.3975330000 23.0955190000
H 13.7400330000 13.4018710000 23.1507040000
O 5.5129900000 2.7770180000 23.1513870000
O 17.7337824000 3.7664370000 23.1583010000
O 2.1899990000 6.4957270000 23.1982890000
H 6.3383290000 2.1559070000 23.2050630000
H 15.8166100000 14.0315211800 23.2323790000
O 12.8463600000 13.0100220000 23.2425620000
O 11.4200130000 3.3175540000 23.2641440000
H 1.7409250000 7.3801440000 23.3499080000
H 16.9081184000 12.0305200000 23.3623840000
H 12.7250020000 11.5058590000 23.3788860000
O 12.5470900000 10.4718110000 23.4025260000
H 3.1385200000 3.3323310000 23.4120680000
O 15.0331200000 14.5504131800 23.4136050000
H 11.2271800000 6.2912330000 23.4154310000
O 0.7732570000 8.6395850000 23.4967600000
H 2.5257800000 1.1846848200 23.5143570000
O 15.0516874000 5.6796690000 23.5199820000
H 8.9401870000 11.7933020000 23.5348730000
O 2.4461170000 0.2306398200 23.6197100000
H 1.5157780000 3.2629730000 23.6316360000
H 4.6558020000 10.9417880000 23.6452910000
H 11.5167370000 1.5820328200 23.7945890000
H 10.9028500000 3.8981980000 23.8576690000
H 12.8392060000 7.5449960000 23.8705030000
O 4.6661680000 14.0634140000 23.9122890000
H 3.8632950000 14.6514160000 23.9498930000
O 11.6125080000 0.5258668200 23.9509040000
O 2.4276600000 2.9374860000 23.9560760000
H 15.6185034000 6.3064620000 24.0165390000
H 0.8866060000 9.4906330000 24.0454720000
H 0.0391750000 8.2462920000 24.0466050000
H 14.2451680000 10.0903740000 24.2050460000
H 15.1897224000 2.9869270000 24.2119070000
H 4.8155480000 12.2798140000 24.4231060000
H 1.9518750000 0.1185718200 24.4976620000
H 2.3561830000 5.8426100000 24.5337510000
O 1.6033930000 11.4869110000 24.5966360000
O 4.7304010000 11.3193700000 24.6374000000
H 14.5643590000 0.0316920000 24.6765810000
H 8.2778000000 0.9327428200 24.6886970000
O 12.3775860000 7.1906870000 24.7299600000
H 5.1029990000 14.3565970000 24.7412590000
H 12.5326010000 13.1796111800 24.8458410000
O 16.4091090000 7.6967020000 24.8796280000
H 11.4962000000 0.5471408200 24.8826470000
H 15.8221170000 8.5536120000 24.8895160000
H 0.6884040000 11.6981280000 24.9421470000
O 14.8914780000 10.0356740000 24.9967180000
H 4.7709130000 2.5304760000 25.0297840000
H 8.8274710000 5.1938410000 25.0355880000
Au 7.6619970000 7.6517620000 25.0800040000
H 11.5345290000 9.9996250000 25.0860770000
O 16.7889234000 11.7514730000 25.1013720000
H 11.7051810000 7.7807840000 25.1669150000
O 15.0728094000 2.8421930000 25.1800350000
H 16.0344724000 11.0419430000 25.1907490000
O 9.1247530000 11.3612850000 25.1935470000
H 2.3005610000 11.7881860000 25.2568980000
H 8.1359000000 11.1475250000 25.3139390000
H 2.0802200000 4.6282080000 25.3281330000
H 10.1044750000 9.9386420000 25.4242710000
O 2.4173820000 5.5418900000 25.4698440000
H 9.1265010000 12.3139970000 25.4973570000
O 8.0985940000 0.3452648200 25.5142540000
H 3.6222680000 9.9805240000 25.5147690000
H 16.4921534000 12.5828650000 25.5153640000
H 14.6791320000 1.3952790000 25.5229460000
H 12.7688480000 5.4548250000 25.5805190000
O 14.4145010000 0.4182430000 25.5895890000
H 7.1793730000 0.0707748200 25.6614390000
H 15.8602654000 3.1147920000 25.6623520000
H 13.7881470000 4.1644030000 25.6767600000
H 5.9752980000 10.9593670000 25.6919500000
O 10.9595700000 9.5201430000 25.7182220000
H 16.2922460000 7.1822020000 25.7777030000
H 9.1202720000 14.5873330000 25.7799650000
H 14.3101650000 9.9837990000 25.8108050000
O 12.3631830000 13.3412251800 25.8263610000
H 0.2221780000 14.8653510000 25.8900950000
O 8.8359180000 4.6501450000 25.8934620000
O 1.1254710000 15.2544360000 25.9398640000
O 4.5953890000 2.2395900000 25.9665970000
O 12.9348360000 4.5520550000 25.9820520000
H 10.4908070000 13.8819850000 26.0191070000
H 12.8857160000 14.1367501800 26.0210980000
H 15.7812260000 15.0042120000 26.0241920000
O 3.4978650000 9.2115590000 26.1005620000
O 5.5486030000 14.8948921800 26.1657090000
H 13.4783970000 7.3352130000 26.1662340000
H 6.7450430000 9.6961900000 26.1778650000
O 9.5082890000 13.7695470000 26.1881340000
O 16.5080800000 14.2610080000 26.1931520000
O 6.7766410000 10.6915770000 26.2460160000
H 5.0445180000 0.3389920000 26.2464990000
H 3.8480900000 6.1657320000 26.3289550000
H 11.6785960000 3.6956130000 26.3616850000
H 2.4239490000 13.8754950000 26.3779170000
H 12.9798100000 0.8263780000 26.3833010000
H 10.0814540000 3.7616910000 26.3948030000
H 7.9608730000 4.6607980000 26.4017700000
H 0.9827116000 6.1801360000 26.4022550000
H 2.7181430000 2.4818310000 26.4074370000
H 5.2048440000 2.8795360000 26.4126970000
H 1.1819030000 0.6927258200 26.4288280000
H 2.5038610000 9.2291850000 26.4411840000
O 2.8765240000 12.9919210000 26.5150780000
O 10.8428160000 3.2645960000 26.7611910000
O 17.0542110000 3.6283760000 26.8500870000
H 17.3099440000 4.6018620000 26.8597460000
H 5.6752270000 5.1411190000 26.8634400000
H 4.6503100000 7.3754220000 26.8663160000
O 0.1537946000 6.4120840000 26.8670890000
O 12.0954050000 0.7199940000 26.8806270000
H 11.5820950000 1.5795810000 26.8993360000
O 1.8790600000 2.3572890000 26.8996720000
O 0.8783420000 9.3476840000 26.9721040000
H 0.3943610000 8.4673120000 26.9873420000
H 13.3992290000 11.6501530000 27.0112120000
O 13.9936380000 7.2915440000 27.0381670000
O 6.2036690000 4.3011560000 27.0411420000
H 5.5305310000 14.4364561800 27.0412780000
O 4.4937760000 6.4290550000 27.0837390000
H 0.1537546000 3.1929960000 27.1262270000
H 8.0142530000 1.4653110000 27.1391820000
H 14.2077560000 6.3589360000 27.1808210000
H 16.4799820000 14.1431460000 27.1896160000
H 0.2413650000 10.0957490000 27.2332290000
O 13.8380520000 10.8724330000 27.2675620000
H 7.0305350000 2.6383160000 27.3628260000
H 2.6672140000 12.7180030000 27.4070060000
H 11.2152840000 8.9343630000 27.4983970000
H 11.0268350000 11.8640450000 27.6022710000
H 12.5113950000 8.0009910000 27.7730680000
H 2.2493910000 2.1848320000 27.7875890000
O 7.5527370000 1.9741260000 27.8096740000
H 0.4610766000 6.4205010000 27.8127200000
H 4.1754160000 9.5019800000 27.8895770000
H 9.0888070000 14.2462550000 27.9099600000
H 6.5009420000 11.0463700000 27.9286510000
Au 7.2505160000 7.4501820000 27.9431810000
H 6.1541220000 4.2389210000 28.0105670000
H 15.6763184000 11.3998010000 28.1127650000
H 12.3020124000 15.0312480000 28.1146990000
H 15.8387020000 4.2177490000 28.1371070000
H 10.6444380000 3.0192810000 28.1583700000
H 13.4803430000 10.6444320000 28.1672880000
O 15.1156230000 4.8527320000 28.2085560000
O 11.7376150000 8.4903610000 28.2145720000
H 14.3278470000 4.3555600000 28.4539710000
O 16.6169844000 11.3141630000 28.5624010000
O 11.1140210000 12.1240670000 28.5748470000
H 5.7494430000 12.3473100000 28.5880690000
H 1.3335160000 9.1071520000 28.5959210000
H 3.7275920000 6.1412010000 28.5981740000
H 4.2479000000 14.0530180000 28.7991910000
O 5.1915900000 13.8928570000 28.8095650000
O 6.2145780000 11.4172330000 28.8354040000
H 12.1288194000 13.6203710000 28.8458490000
O 12.6833944000 14.4464210000 28.8726680000
H 10.1609960000 11.9883580000 28.8752200000
O 4.2508350000 9.6814790000 28.8783840000
O 8.8927390000 14.2459860000 28.8920050000
H 1.5824950000 14.6319700000 28.9118620000
H 4.9944800000 10.3891740000 28.9120220000
H 8.0308040000 14.7501800000 28.9764790000
H 17.4948250000 13.1127830000 29.0200640000
H 2.7553700000 11.0118680000 29.0740670000
H 7.1020990000 1.1095780000 29.1029440000
H 16.4331654000 10.5340190000 29.1232230000
O 2.2290020000 11.8612860000 29.1872580000
O 17.7100110000 14.0586440000 29.2249670000
O 10.8343350000 2.9397380000 29.2646340000
H 11.5903140000 7.3149320000 29.3150620000
H 12.4113040000 9.5426730000 29.3339910000
O 2.5004680000 14.6082770000 29.3364590000
O 3.2188080000 5.6826870000 29.3558930000
H 16.8199480000 14.4841460000 29.3809670000
H 1.2979780000 11.5407470000 29.3934940000
O 5.1942350000 3.0383298200 29.4305290000
O 2.6013040000 1.9374040000 29.4662440000
H 15.3747010000 5.8038520000 29.4741730000
H 8.5720160000 12.5961640000 29.5025340000
H 5.5041230000 14.4525200000 29.5041380000
H 14.1619840000 14.5869770000 29.5323550000
H 3.7947920000 4.9276930000 29.5482180000
H 4.3182200000 2.5609818200 29.5526000000
H 1.6420996000 5.9360690000 29.5628420000
H 12.7470890000 5.1339040000 29.5685560000
H 10.9484960000 2.0345750000 29.6081570000
H 2.4100430000 9.2085780000 29.6206770000
O 1.4306270000 9.1831770000 29.6247450000
O 13.1333980000 4.2289580000 29.6414150000
H 12.3370790000 3.6509760000 29.6506220000
H 7.7972450000 11.3239490000 29.6520890000
H 2.4636690000 13.6236330000 29.6628250000
O 0.7920416000 6.4525620000 29.6872370000
O 15.0834660000 14.8617880000 29.7114380000
O 11.6511510000 6.3624860000 29.7197960000
O 6.9463540000 0.2894440000 29.7228090000
H 1.7744980000 2.4979980000 29.7361930000
H 15.6007400000 1.2857420000 29.7371470000
H 1.2756026000 7.3591840000 29.7737280000
H 10.0260190000 14.9954371800 29.8041060000
O 15.8473130000 2.2795470000 29.8507830000
O 15.6025540000 6.7237940000 29.8992240000
H 2.5667040000 0.9939980000 29.9009230000
O 8.6645350000 11.6724070000 29.9010190000
O 12.9597160000 10.0809290000 29.9032640000
H 5.8002660000 2.5196548200 29.9495400000
H 17.2754920000 2.9121010000 29.9571860000
H 11.5332550000 15.1518531800 29.9606200000
O 0.3433286000 3.3615550000 29.9925090000
H 10.7342830000 6.2435420000 30.0078910000
H 15.3195700000 8.4896170000 30.0145350000
H 0.1214556000 4.2800040000 30.0154880000
H 14.5188910000 9.8549520000 30.0722910000
H 14.9852290000 2.6619950000 30.0794420000
O 15.4547300000 9.4579810000 30.0807290000
H 16.5490340000 6.6807460000 30.1020690000
H 12.4976290000 10.8979720000 30.2563710000
Au 5.7985380000 8.1991700000 30.2939250000
O 10.6904160000 0.0856360000 30.3173680000
Au 7.5552840000 6.0104850000 30.3409750000
Au 8.8550080000 3.6235050000 30.5730060000
H 7.3553770000 0.5890840000 30.5921870000
Au 8.7600150000 8.5412580000 30.6224580000
H 15.2936850000 14.5467110000 30.6295110000
Au 10.6002530000 9.5051280000 32.3155330000
Au 4.4381020000 9.5137460000 32.3921270000
Au 5.8860910000 12.0487090000 32.4779290000
Au 8.9787160000 11.9323080000 32.5126940000
Au 1.6859810000 14.3804070000 32.5266980000
Au 16.4939800000 14.4535640000 32.5368090000
Au 15.0294040000 6.7680800000 32.5601850000
Au 13.3177550000 4.1994690000 32.5789530000
Au 8.9455390000 1.7580770000 32.6104650000
Au 6.0397120000 1.6447700000 32.6124770000
Au 4.2099600000 4.1201700000 32.6340510000
Au 16.3283160000 9.3879090000 32.6585970000
Au 3.0938930000 1.5536320000 32.6652360000
Au 16.2642750000 4.1656550000 32.6751100000
Au 0.0558080000 12.0328480000 32.6912850000
Au 14.9227760000 12.0222020000 32.6956300000
Au 12.1107030000 6.8100790000 32.7029840000
Au 0.0431150000 6.6754980000 32.7092670000
Au 10.4975370000 14.3853760000 32.7096720000
Au 7.0661990000 4.3435430000 32.7109210000
Au 3.2247960000 12.0365080000 32.7132060000
Au 1.3520330000 9.5924880000 32.7162180000
Au 12.0259820000 11.9616310000 32.7243870000
Au 0.1061850000 1.6107760000 32.7292870000
Au 7.1993040000 9.4922210000 32.7386460000
Au 10.4392570000 4.3665320000 32.7389440000
Au 7.5289660000 14.4624960000 32.7398740000
Au 14.8560910000 1.6947810000 32.7501060000
Au 4.5525720000 14.5833390000 32.7536840000
Au 5.6478100000 6.7849410000 32.7562190000
Au 9.0263610000 6.7913560000 32.7687750000
Au 1.4217990000 4.1635890000 32.7721740000
Au 13.3863960000 9.3415920000 32.8015050000
Au 2.7544510000 6.9540070000 32.8504630000
Au 13.5370880000 14.5430340000 32.8596250000
Au 11.8212370000 1.5818390000 32.9353010000
Au 7.3600590000 7.6444450000 34.9639990000
Au 0.2328060000 15.3002281800 34.9666540000
Au 7.6088770000 12.6963940000 34.9764450000
Au 11.8338060000 10.1597560000 35.0005670000
Au 14.7471150000 5.1250760000 35.0015460000
Au 3.0978410000 5.1649790000 35.0224900000
Au 7.4052810000 2.4165160000 35.0482110000
Au 2.9424120000 10.2895260000 35.0664580000
Au 1.6160330000 2.4250140000 35.0775610000
Au 13.3752740000 2.5729960000 35.0846430000
Au 8.9811690000 0.0703300000 35.0954580000
Au 8.9771710000 10.2149760000 35.0974220000
Au 4.3779690000 7.8517370000 35.0982670000
Au 1.3327880000 7.9643350000 35.1008820000
Au 4.7632740000 12.7150630000 35.1142280000
Au 3.0762070000 15.2469841800 35.1207780000
Au 11.8840400000 4.9977310000 35.1240930000
Au 8.8589240000 4.8916650000 35.1252240000
Au 16.3376370000 7.7016230000 35.1253800000
Au 16.2798230000 12.9638210000 35.1360000000
Au 5.9403090000 15.3386241800 35.1368550000
Au 10.3911370000 12.8643260000 35.1381480000
Au 14.7388350000 10.2174000000 35.1436490000
Au 5.9453290000 5.0946070000 35.1457540000
Au 13.3347580000 7.6206450000 35.1472820000
Au 16.6075080000 2.4605750000 35.1475530000
Au 10.4304870000 2.5204540000 35.1488770000
Au 0.0722580000 5.1676850000 35.1553980000
Au 5.9917260000 10.1998550000 35.1554320000
Au 15.0401950000 0.0985400000 35.1598520000
Au 10.3272010000 7.5467720000 35.1660410000
Au 13.3842430000 12.7807890000 35.1792880000
Au 1.6998190000 12.7828720000 35.1999990000
Au 4.4500060000 2.5461390000 35.2063810000
Au 11.9360660000 15.4116791800 35.2086820000
Au 17.7790654000 10.5880390000 35.2121070000
Au 0.0000000000 3.4279000000 37.4984221512
Au 0.0000000000 8.5697463936 37.4984221512
Au 0.0000000000 13.7115927871 37.4984221512
Au 1.4843231997 0.8569768032 37.4984221512
Au 1.4843231997 5.9988231968 37.4984221512
Au 1.4843231997 11.1406695903 37.4984221512
Au 2.9686463995 3.4279000000 37.4984221512
Au 2.9686463995 8.5697463936 37.4984221512
Au 2.9686463995 13.7115927871 37.4984221512
Au 4.4529695992 0.8569768032 37.4984221512
Au 4.4529695992 5.9988231968 37.4984221512
Au 4.4529695992 11.1406695903 37.4984221512
Au 5.9372927989 3.4279000000 37.4984221512
Au 5.9372927989 8.5697463936 37.4984221512
Au 5.9372927989 13.7115927871 37.4984221512
Au 7.4216159986 0.8569768032 37.4984221512
Au 7.4216159986 11.1406695903 37.4984221512
Au 7.4216159986 5.9988231968 37.4984221512
Au 8.9059391984 3.4279000000 37.4984221512
Au 8.9059391984 13.7115927871 37.4984221512
Au 8.9059391984 8.5697463936 37.4984221512
Au 10.3902623981 5.9988231968 37.4984221512
Au 10.3902623981 0.8569768032 37.4984221512
Au 10.3902623981 11.1406695903 37.4984221512
Au 11.8745855978 3.4279000000 37.4984221512
Au 11.8745855978 8.5697463936 37.4984221512
Au 11.8745855978 13.7115927871 37.4984221512
Au 13.3589087975 0.8569768032 37.4984221512
Au 13.3589087975 5.9988231968 37.4984221512
Au 13.3589087975 11.1406695903 37.4984221512
Au 14.8432319973 3.4279000000 37.4984221512
Au 14.8432319973 13.7115927871 37.4984221512
Au 14.8432319973 8.5697463936 37.4984221512
Au 16.3275551970 0.8569768032 37.4984221512
Au 16.3275551970 5.9988231968 37.4984221512
Au 16.3275551970 11.1406695903 37.4984221512
Au -0.0000000000 6.8557975957 39.9223117863
Au 0.0000000000 1.7139512021 39.9223117863
Au 0.0000000000 11.9976439893 39.9223117863
Au 1.4843231997 9.4267207925 39.9223117863
Au 1.4843231997 14.5685671861 39.9223117863
Au 1.4843231997 4.2848743989 39.9223117863
Au 2.9686463995 6.8557975957 39.9223117863
Au 2.9686463995 11.9976439893 39.9223117863
Au 2.9686463995 1.7139512021 39.9223117863
Au 4.4529695992 14.5685671861 39.9223117863
Au 4.4529695992 9.4267207925 39.9223117863
Au 4.4529695992 4.2848743989 39.9223117863
Au 5.9372927989 1.7139512021 39.9223117863
Au 5.9372927989 6.8557975957 39.9223117863
Au 5.9372927989 11.9976439893 39.9223117863
Au 7.4216159986 14.5685671861 39.9223117863
Au 7.4216159986 4.2848743989 39.9223117863
Au 7.4216159986 9.4267207925 39.9223117863
Au 8.9059391984 6.8557975957 39.9223117863
Au 8.9059391984 1.7139512021 39.9223117863
Au 8.9059391984 11.9976439893 39.9223117863
Au 10.3902623981 9.4267207925 39.9223117863
Au 10.3902623981 4.2848743989 39.9223117863
Au 10.3902623981 14.5685671861 39.9223117863
Au 11.8745855978 1.7139512021 39.9223117863
Au 11.8745855978 6.8557975957 39.9223117863
Au 11.8745855978 11.9976439893 39.9223117863
Au 13.3589087975 4.2848743989 39.9223117863
Au 13.3589087975 9.4267207925 39.9223117863
Au 13.3589087975 14.5685671861 39.9223117863
Au 14.8432319973 1.7139512021 39.9223117863
Au 14.8432319973 6.8557975957 39.9223117863
Au 14.8432319973 11.9976439893 39.9223117863
Au 16.3275551970 4.2848743989 39.9223117863
Au 16.3275551970 9.4267207925 39.9223117863
Au 16.3275551970 14.5685671861 39.9223117863
Au 0.0000000000 0.0000024043 42.3462014214
Au 0.0000000000 5.1418487979 42.3462014214
Au 0.0000000000 10.2836951914 42.3462014214
Au 1.4843231997 2.5709256011 42.3462014214
Au 1.4843231997 7.7127719946 42.3462014214
Au 1.4843231997 12.8546183882 42.3462014214
Au 2.9686463995 0.0000024043 42.3462014214
Au 2.9686463995 5.1418487979 42.3462014214
Au 2.9686463995 10.2836951914 42.3462014214
Au 4.4529695992 2.5709256011 42.3462014214
Au 4.4529695992 7.7127719946 42.3462014214
Au 4.4529695992 12.8546183882 42.3462014214
Au 5.9372927989 0.0000024043 42.3462014214
Au 5.9372927989 5.1418487979 42.3462014214
Au 5.9372927989 10.2836951914 42.3462014214
Au 7.4216159986 2.5709256011 42.3462014214
Au 7.4216159986 12.8546183882 42.3462014214
Au 7.4216159986 7.7127719946 42.3462014214
Au 8.9059391984 0.0000024043 42.3462014214
Au 8.9059391984 5.1418487979 42.3462014214
Au 8.9059391984 10.2836951914 42.3462014214
Au 10.3902623981 7.7127719946 42.3462014214
Au 10.3902623981 2.5709256011 42.3462014214
Au 10.3902623981 12.8546183882 42.3462014214
Au 11.8745855978 0.0000024043 42.3462014214
Au 11.8745855978 5.1418487979 42.3462014214
Au 11.8745855978 10.2836951914 42.3462014214
Au 13.3589087975 2.5709256011 42.3462014214
Au 13.3589087975 7.7127719946 42.3462014214
Au 13.3589087975 12.8546183882 42.3462014214
Au 14.8432319973 0.0000024043 42.3462014214
Au 14.8432319973 5.1418487979 42.3462014214
Au 14.8432319973 10.2836951914 42.3462014214
Au 16.3275551970 2.5709256011 42.3462014214
Au 16.3275551970 7.7127719946 42.3462014214
Au 16.3275551970 12.8546183882 42.3462014214
