  178
 
Au      0.000000    0.000000    0.000000
Au      0.000000    2.955000    0.000000
Au      0.000000    5.911000    0.000000
Au      2.956000    0.000000    0.000000
Au      2.956000    2.955000    0.000000
Au      2.956000    5.911000    0.000000
Au      5.912000    0.000000    0.000000
Au      5.912000    2.955000    0.000000
Au      5.912000    5.911000    0.000000
Au      8.670000    0.000000    0.000000
Au      8.670000    2.955000    0.000000
Au      8.670000    5.911000    0.000000
Au     11.626000    0.000000    0.000000
Au     11.626000    2.955000    0.000000
Au     11.626000    5.911000    0.000000
Au      1.478000    1.478000    2.090000
Au      1.478000    4.433000    2.090000
Au      1.478000    7.389000    2.090000
Au      4.434000    1.478000    2.090000
Au      4.434000    4.433000    2.090000
Au      4.434000    7.389000    2.090000
Au      7.192000    1.478000    2.090000
Au      7.192000    4.433000    2.090000
Au      7.192000    7.389000    2.090000
Au     10.148000    1.478000    2.090000
Au     10.148000    4.433000    2.090000
Au     10.148000    7.389000    2.090000
Au     13.104000    1.478000    2.090000
Au     13.104000    4.433000    2.090000
Au     13.104000    7.389000    2.090000
Au      0.000000    0.000000    4.180000
Au      0.000000    2.955000    4.180000
Au      0.000000    5.911000    4.180000
Au      2.956000    0.000000    4.180000
Au      2.956000    2.955000    4.180000
Au      2.956000    5.911000    4.180000
Au      5.912000    0.000000    4.180000
Au      5.912000    2.955000    4.180000
Au      5.912000    5.911000    4.180000
Au      8.670000    0.000000    4.180000
Au      8.670000    2.955000    4.180000
Au      8.670000    5.911000    4.180000
Au     11.626000    0.000000    4.180000
Au     11.626000    2.955000    4.180000
Au     11.626000    5.911000    4.180000
Au      1.478000    1.478000    6.270000
Au      1.478000    4.433000    6.270000
Au      1.478000    7.389000    6.270000
Au      4.434000    1.478000    6.270000
Au      4.434000    4.433000    6.270000
Au      4.434000    7.389000    6.270000
Au      7.192000    1.478000    6.270000
Au      7.192000    4.433000    6.270000
Au      7.192000    7.389000    6.270000
Au     10.148000    1.478000    6.270000
Au     10.148000    4.433000    6.270000
Au     10.148000    7.389000    6.270000
Au     13.104000    1.478000    6.270000
Au     13.104000    4.433000    6.270000
Au     13.104000    7.389000    6.270000
Au      0.000000    0.000000    8.360000
Au      0.000000    2.955000    8.360000
Au      0.000000    5.911000    8.360000
Au      2.956000    0.000000    8.360000
Au      2.956000    2.955000    8.360000
Au      2.956000    5.911000    8.360000
Au      5.912000    0.000000    8.360000
Au      5.912000    2.955000    8.360000
Au      5.912000    5.911000    8.360000
Au      8.670000    0.000000    8.360000
Au      8.670000    2.955000    8.360000
Au      8.670000    5.911000    8.360000
Au     11.626000    0.000000    8.360000
Au     11.626000    2.955000    8.360000
Au     11.626000    5.911000    8.360000
Au      1.478000    1.478000   10.450000
Au      1.478000    4.433000   10.450000
Au      1.478000    7.389000   10.450000
Au      4.434000    1.478000   10.450000
Au      4.434000    4.433000   10.450000
Au      4.434000    7.389000   10.450000
Au      7.192000    1.478000   10.450000
Au      7.192000    4.433000   10.450000
Au      7.192000    7.389000   10.450000
Au     10.148000    1.478000   10.450000
Au     10.148000    4.433000   10.450000
Au     10.148000    7.389000   10.450000
Au     13.104000    1.478000   10.450000
Au     13.104000    4.433000   10.450000
Au     13.104000    7.389000   10.450000
N       4.855400    5.911900   12.031800
N       9.528000    5.913700   12.034000
N       7.192000    5.934000   12.040000
H      10.319500    5.905300   12.684800
H       4.068400    5.904400   12.689600
C       8.371600    5.904500   12.727400
C       6.000000    5.908800   12.796400
N       8.319600    5.859100   14.082100
N       5.933800    5.882400   14.100800
H       9.193800    5.832300   14.603400
C       7.090400    5.863800   14.843800
N       7.075500    5.846400   16.128800
H       8.020000    5.833700   16.527100
Au      1.478000    1.478000   23.082000
Au      1.478000    4.433000   23.082000
Au      1.478000    7.389000   23.082000
Au      4.434000    1.478000   23.082000
Au      4.434000    4.433000   23.082000
Au      4.434000    7.389000   23.082000
Au      7.192000    1.478000   23.082000
Au      7.192000    4.433000   23.082000
Au      7.192000    7.389000   23.082000
Au     10.148000    1.478000   23.082000
Au     10.148000    4.433000   23.082000
Au     10.148000    7.389000   23.082000
Au     13.104000    1.478000   23.082000
Au     13.104000    4.433000   23.082000
Au     13.104000    7.389000   23.082000
Au      0.000000    0.000000   25.172000
Au      0.000000    2.955000   25.172000
Au      0.000000    5.911000   25.172000
Au      2.956000    0.000000   25.172000
Au      2.956000    2.955000   25.172000
Au      2.956000    5.911000   25.172000
Au      5.912000    0.000000   25.172000
Au      5.912000    2.955000   25.172000
Au      5.912000    5.911000   25.172000
Au      8.670000    0.000000   25.172000
Au      8.670000    2.955000   25.172000
Au      8.670000    5.911000   25.172000
Au     11.626000    0.000000   25.172000
Au     11.626000    2.955000   25.172000
Au     11.626000    5.911000   25.172000
Au      1.478000    1.478000   27.262000
Au      1.478000    4.433000   27.262000
Au      1.478000    7.389000   27.262000
Au      4.434000    1.478000   27.262000
Au      4.434000    4.433000   27.262000
Au      4.434000    7.389000   27.262000
Au      7.192000    1.478000   27.262000
Au      7.192000    4.433000   27.262000
Au      7.192000    7.389000   27.262000
Au     10.148000    1.478000   27.262000
Au     10.148000    4.433000   27.262000
Au     10.148000    7.389000   27.262000
Au     13.104000    1.478000   27.262000
Au     13.104000    4.433000   27.262000
Au     13.104000    7.389000   27.262000
Au      0.000000    0.000000   29.352000
Au      0.000000    2.955000   29.352000
Au      0.000000    5.911000   29.352000
Au      2.956000    0.000000   29.352000
Au      2.956000    2.955000   29.352000
Au      2.956000    5.911000   29.352000
Au      5.912000    0.000000   29.352000
Au      5.912000    2.955000   29.352000
Au      5.912000    5.911000   29.352000
Au      8.670000    0.000000   29.352000
Au      8.670000    2.955000   29.352000
Au      8.670000    5.911000   29.352000
Au     11.626000    0.000000   29.352000
Au     11.626000    2.955000   29.352000
Au     11.626000    5.911000   29.352000
Au      1.478000    1.478000   31.442000
Au      1.478000    4.433000   31.442000
Au      1.478000    7.389000   31.442000
Au      4.434000    1.478000   31.442000
Au      4.434000    4.433000   31.442000
Au      4.434000    7.389000   31.442000
Au      7.192000    1.478000   31.442000
Au      7.192000    4.433000   31.442000
Au      7.192000    7.389000   31.442000
Au     10.148000    1.478000   31.442000
Au     10.148000    4.433000   31.442000
Au     10.148000    7.389000   31.442000
Au     13.104000    1.478000   31.442000
Au     13.104000    4.433000   31.442000
Au     13.104000    7.389000   31.442000
