116   
   
Au 0.000 0.000 0.000
Au 0.000 4.146 0.000
Au 2.073 2.073 0.000
Au 2.073 6.219 0.000
Au 4.146 0.000 0.000
Au 4.146 4.146 0.000
Au 6.219 2.073 0.000
Au 6.219 6.219 0.000
Au 0.000 2.073 2.073
Au 0.000 6.219 2.073
Au 2.073 0.000 2.073
Au 2.073 4.146 2.073
Au 4.146 2.073 2.073
Au 4.146 6.219 2.073
Au 6.219 0.000 2.073
Au 6.219 4.146 2.073
Au 0.000 0.000 4.146
Au 0.000 4.146 4.146
Au 2.073 2.073 4.146
Au 2.073 6.219 4.146
Au 4.146 0.000 4.146
Au 4.146 4.146 4.146
Au 6.219 2.073 4.146
Au 6.219 6.219 4.146
Au 0.000 2.073 6.219
Au 0.000 6.219 6.219
Au 2.073 0.000 6.219
Au 2.073 4.146 6.219
Au 4.146 2.073 6.219
Au 4.146 6.219 6.219
Au 6.219 0.000 6.219
Au 6.219 4.146 6.219
Au 0.000 0.000 8.292
Au 0.000 4.146 8.292
Au 2.073 2.073 8.292
Au 2.073 6.219 8.292
Au 4.146 0.000 8.292
Au 4.146 4.146 8.292
Au 6.219 2.073 8.292
Au 6.219 6.219 8.292
Au 0.000 2.073 10.365
Au 0.000 6.219 10.365
Au 2.073 0.000 10.365
Au 2.073 4.146 10.365
Au 4.146 2.073 10.365
Au 4.146 6.219 10.365
Au 6.219 0.000 10.365
Au 6.219 4.146 10.365
Au 0.000 0.000 12.438
Au 0.000 4.146 12.438
Au 2.073 2.073 12.438
Au 2.073 6.219 12.438
Au 4.146 0.000 12.438
Au 4.146 4.146 12.438
Au 6.219 2.073 12.438
Au 6.219 6.219 12.438
S 4.146 2.073 13.923
C 4.149 2.077 15.684
H 2.047 2.103 15.868
H 6.244 2.103 15.874
C 2.940 2.083 16.385
C 5.348 2.083 16.385
C 2.933 2.061 17.808
C 5.341 2.061 17.808
H 2.037 2.041 18.319
H 6.234 2.041 18.325
C 4.132 2.067 18.508
S 4.146 2.073 20.270
Au 0.000 0.000 21.755
Au 0.000 4.146 21.755
Au 2.073 2.073 21.755
Au 2.073 6.219 21.755
Au 4.146 0.000 21.755
Au 4.146 4.146 21.755
Au 6.219 2.073 21.755
Au 6.219 6.219 21.755
Au 0.000 2.073 23.828
Au 0.000 6.219 23.828
Au 2.073 0.000 23.828
Au 2.073 4.146 23.828
Au 4.146 2.073 23.828
Au 4.146 6.219 23.828
Au 6.219 0.000 23.828
Au 6.219 4.146 23.828
Au 0.000 0.000 25.901
Au 0.000 4.146 25.901
Au 2.073 2.073 25.901
Au 2.073 6.219 25.901
Au 4.146 0.000 25.901
Au 4.146 4.146 25.901
Au 6.219 2.073 25.901
Au 6.219 6.219 25.901
Au 0.000 2.073 27.974
Au 0.000 6.219 27.974
Au 2.073 0.000 27.974
Au 2.073 4.146 27.974
Au 4.146 2.073 27.974
Au 4.146 6.219 27.974
Au 6.219 0.000 27.974
Au 6.219 4.146 27.974
Au 0.000 0.000 30.047
Au 0.000 4.146 30.047
Au 2.073 2.073 30.047
Au 2.073 6.219 30.047
Au 4.146 0.000 30.047
Au 4.146 4.146 30.047
Au 6.219 2.073 30.047
Au 6.219 6.219 30.047
Au 0.000 2.073 32.120
Au 0.000 6.219 32.120
Au 2.073 0.000 32.120
Au 2.073 4.146 32.120
Au 4.146 2.073 32.120
Au 4.146 6.219 32.120
Au 6.219 0.000 32.120
Au 6.219 4.146 32.120
