  183
 
Au      0.000000    0.000000    0.000000
Au      0.000000    2.955000    0.000000
Au      0.000000    5.911000    0.000000
Au      2.956000    0.000000    0.000000
Au      2.956000    2.955000    0.000000
Au      2.956000    5.911000    0.000000
Au      5.912000    0.000000    0.000000
Au      5.912000    2.955000    0.000000
Au      5.912000    5.911000    0.000000
Au      8.670000    0.000000    0.000000
Au      8.670000    2.955000    0.000000
Au      8.670000    5.911000    0.000000
Au     11.626000    0.000000    0.000000
Au     11.626000    2.955000    0.000000
Au     11.626000    5.911000    0.000000
Au      1.478000    1.478000    2.090000
Au      1.478000    4.433000    2.090000
Au      1.478000    7.389000    2.090000
Au      4.434000    1.478000    2.090000
Au      4.434000    4.433000    2.090000
Au      4.434000    7.389000    2.090000
Au      7.192000    1.478000    2.090000
Au      7.192000    4.433000    2.090000
Au      7.192000    7.389000    2.090000
Au     10.148000    1.478000    2.090000
Au     10.148000    4.433000    2.090000
Au     10.148000    7.389000    2.090000
Au     13.104000    1.478000    2.090000
Au     13.104000    4.433000    2.090000
Au     13.104000    7.389000    2.090000
Au      0.000000    0.000000    4.180000
Au      0.000000    2.955000    4.180000
Au      0.000000    5.911000    4.180000
Au      2.956000    0.000000    4.180000
Au      2.956000    2.955000    4.180000
Au      2.956000    5.911000    4.180000
Au      5.912000    0.000000    4.180000
Au      5.912000    2.955000    4.180000
Au      5.912000    5.911000    4.180000
Au      8.670000    0.000000    4.180000
Au      8.670000    2.955000    4.180000
Au      8.670000    5.911000    4.180000
Au     11.626000    0.000000    4.180000
Au     11.626000    2.955000    4.180000
Au     11.626000    5.911000    4.180000
Au      1.478000    1.478000    6.270000
Au      1.478000    4.433000    6.270000
Au      1.478000    7.389000    6.270000
Au      4.434000    1.478000    6.270000
Au      4.434000    4.433000    6.270000
Au      4.434000    7.389000    6.270000
Au      7.192000    1.478000    6.270000
Au      7.192000    4.433000    6.270000
Au      7.192000    7.389000    6.270000
Au     10.148000    1.478000    6.270000
Au     10.148000    4.433000    6.270000
Au     10.148000    7.389000    6.270000
Au     13.104000    1.478000    6.270000
Au     13.104000    4.433000    6.270000
Au     13.104000    7.389000    6.270000
Au      0.000000    0.000000    8.360000
Au      0.000000    2.955000    8.360000
Au      0.000000    5.911000    8.360000
Au      2.956000    0.000000    8.360000
Au      2.956000    2.955000    8.360000
Au      2.956000    5.911000    8.360000
Au      5.912000    0.000000    8.360000
Au      5.912000    2.955000    8.360000
Au      5.912000    5.911000    8.360000
Au      8.670000    0.000000    8.360000
Au      8.670000    2.955000    8.360000
Au      8.670000    5.911000    8.360000
Au     11.626000    0.000000    8.360000
Au     11.626000    2.955000    8.360000
Au     11.626000    5.911000    8.360000
Au      1.478000    1.478000   10.450000
Au      1.478000    4.433000   10.450000
Au      1.478000    7.389000   10.450000
Au      4.434000    1.478000   10.450000
Au      4.434000    4.433000   10.450000
Au      4.434000    7.389000   10.450000
Au      7.192000    1.478000   10.450000
Au      7.192000    4.433000   10.450000
Au      7.192000    7.389000   10.450000
Au     10.148000    1.478000   10.450000
Au     10.148000    4.433000   10.450000
Au     10.148000    7.389000   10.450000
Au     13.104000    1.478000   10.450000
Au     13.104000    4.433000   10.450000
Au     13.104000    7.389000   10.450000
N       4.855400    5.911900   12.031800
N       9.528000    5.913700   12.034000
N       7.192000    5.934000   12.040000
H       4.075000    5.904900   12.696800
H      10.294000    5.906200   12.716500
C       8.375000    5.913000   12.760700
C       6.010000    5.912100   12.765800
N       8.404700    5.889400   14.094100
N       5.978900    5.888300   14.094200
C       7.194300    5.879900   14.701100
N       7.191200    5.852100   16.050600
H       6.308600    5.861600   16.548400
H       8.070900    5.862100   16.553600
Au      7.312000    5.934000   19.043000
Au      5.813000    4.433000   20.992000
Au      5.813000    7.434000   20.992000
Au      8.813000    4.434000   20.992000
Au      8.813000    7.434000   20.992000
Au      1.478000    1.478000   23.082000
Au      1.478000    4.433000   23.082000
Au      1.478000    7.389000   23.082000
Au      4.434000    1.478000   23.082000
Au      4.434000    4.433000   23.082000
Au      4.434000    7.389000   23.082000
Au      7.192000    1.478000   23.082000
Au      7.192000    4.433000   23.082000
Au      7.192000    7.389000   23.082000
Au     10.148000    1.478000   23.082000
Au     10.148000    4.433000   23.082000
Au     10.148000    7.389000   23.082000
Au     13.104000    1.478000   23.082000
Au     13.104000    4.433000   23.082000
Au     13.104000    7.389000   23.082000
Au      0.000000    0.000000   25.172000
Au      0.000000    2.955000   25.172000
Au      0.000000    5.911000   25.172000
Au      2.956000    0.000000   25.172000
Au      2.956000    2.955000   25.172000
Au      2.956000    5.911000   25.172000
Au      5.912000    0.000000   25.172000
Au      5.912000    2.955000   25.172000
Au      5.912000    5.911000   25.172000
Au      8.670000    0.000000   25.172000
Au      8.670000    2.955000   25.172000
Au      8.670000    5.911000   25.172000
Au     11.626000    0.000000   25.172000
Au     11.626000    2.955000   25.172000
Au     11.626000    5.911000   25.172000
Au      1.478000    1.478000   27.262000
Au      1.478000    4.433000   27.262000
Au      1.478000    7.389000   27.262000
Au      4.434000    1.478000   27.262000
Au      4.434000    4.433000   27.262000
Au      4.434000    7.389000   27.262000
Au      7.192000    1.478000   27.262000
Au      7.192000    4.433000   27.262000
Au      7.192000    7.389000   27.262000
Au     10.148000    1.478000   27.262000
Au     10.148000    4.433000   27.262000
Au     10.148000    7.389000   27.262000
Au     13.104000    1.478000   27.262000
Au     13.104000    4.433000   27.262000
Au     13.104000    7.389000   27.262000
Au      0.000000    0.000000   29.352000
Au      0.000000    2.955000   29.352000
Au      0.000000    5.911000   29.352000
Au      2.956000    0.000000   29.352000
Au      2.956000    2.955000   29.352000
Au      2.956000    5.911000   29.352000
Au      5.912000    0.000000   29.352000
Au      5.912000    2.955000   29.352000
Au      5.912000    5.911000   29.352000
Au      8.670000    0.000000   29.352000
Au      8.670000    2.955000   29.352000
Au      8.670000    5.911000   29.352000
Au     11.626000    0.000000   29.352000
Au     11.626000    2.955000   29.352000
Au     11.626000    5.911000   29.352000
Au      1.478000    1.478000   31.442000
Au      1.478000    4.433000   31.442000
Au      1.478000    7.389000   31.442000
Au      4.434000    1.478000   31.442000
Au      4.434000    4.433000   31.442000
Au      4.434000    7.389000   31.442000
Au      7.192000    1.478000   31.442000
Au      7.192000    4.433000   31.442000
Au      7.192000    7.389000   31.442000
Au     10.148000    1.478000   31.442000
Au     10.148000    4.433000   31.442000
Au     10.148000    7.389000   31.442000
Au     13.104000    1.478000   31.442000
Au     13.104000    4.433000   31.442000
Au     13.104000    7.389000   31.442000
