300

Au    0.000000    0.000000    0.000000
Au    0.000000    0.000000    8.342576
Au    0.000000    2.085644    2.085644
Au    2.085644    0.000000    2.085644
Au    2.085644    2.085644    0.000000
Au    2.085644    2.085644    8.342576
Au    0.000000    0.000000    4.171288
Au    4.171288    0.000000    0.000000
Au    4.171288    0.000000    8.342576
Au   12.513864    0.000000    0.000000
Au   12.513864    0.000000    8.342576
Au    0.000000    4.171288    0.000000
Au    0.000000    4.171288    8.342576
Au    0.000000   12.513864    0.000000
Au    0.000000   12.513864    8.342576
Au    0.000000    2.085644    6.256932
Au    4.171288    2.085644    2.085644
Au   12.513864    2.085644    2.085644
Au    0.000000    6.256932    2.085644
Au    0.000000   14.599508    2.085644
Au    2.085644    0.000000    6.256932
Au    6.256932    0.000000    2.085644
Au   14.599508    0.000000    2.085644
Au    2.085644    4.171288    2.085644
Au    2.085644   12.513864    2.085644
Au    2.085644    2.085644    4.171288
Au    6.256932    2.085644    0.000000
Au    6.256932    2.085644    8.342576
Au   14.599508    2.085644    0.000000
Au   14.599508    2.085644    8.342576
Au    2.085644    6.256932    0.000000
Au    2.085644    6.256932    8.342576
Au    2.085644   14.599508    0.000000
Au    2.085644   14.599508    8.342576
Au    0.000000    4.171288    4.171288
Au    0.000000   12.513864    4.171288
Au    4.171288    0.000000    4.171288
Au   12.513864    0.000000    4.171288
Au    4.171288    4.171288    0.000000
Au    4.171288    4.171288    8.342576
Au   12.513864   12.513864    0.000000
Au   12.513864   12.513864    8.342576
Au   12.513864    4.171288    0.000000
Au   12.513864    4.171288    8.342576
Au    4.171288   12.513864    0.000000
Au    4.171288   12.513864    8.342576
Au    0.000000    6.256932    6.256932
Au    0.000000   14.599508    6.256932
Au    4.171288    2.085644    6.256932
Au   12.513864    2.085644    6.256932
Au    4.171288    6.256932    2.085644
Au   12.513864   14.599508    2.085644
Au   12.513864    6.256932    2.085644
Au    4.171288   14.599508    2.085644
Au    2.085644    4.171288    6.256932
Au    2.085644   12.513864    6.256932
Au    6.256932    0.000000    6.256932
Au   14.599508    0.000000    6.256932
Au    6.256932    4.171288    2.085644
Au   14.599508   12.513864    2.085644
Au   14.599508    4.171288    2.085644
Au    6.256932   12.513864    2.085644
Au    2.085644    6.256932    4.171288
Au    2.085644   14.599508    4.171288
Au    6.256932    2.085644    4.171288
Au   14.599508    2.085644    4.171288
Au    6.256932    6.256932    0.000000
Au    6.256932    6.256932    8.342576
Au   14.599508   14.599508    0.000000
Au   14.599508   14.599508    8.342576
Au   14.599508    6.256932    0.000000
Au   14.599508    6.256932    8.342576
Au    6.256932   14.599508    0.000000
Au    6.256932   14.599508    8.342576
Au    0.000000    8.342576    0.000000
Au    0.000000    8.342576    8.342576
Au    8.342576    0.000000    0.000000
Au    8.342576    0.000000    8.342576
Au    0.000000   10.428220    2.085644
Au    8.342576    2.085644    2.085644
Au    2.085644    8.342576    2.085644
Au   10.428220    0.000000    2.085644
Au    2.085644   10.428220    0.000000
Au    2.085644   10.428220    8.342576
Au   10.428220    2.085644    0.000000
Au   10.428220    2.085644    8.342576
Au    0.000000    8.342576    4.171288
Au    8.342576    4.171288    0.000000
Au    8.342576    4.171288    8.342576
Au    8.342576   12.513864    0.000000
Au    8.342576   12.513864    8.342576
Au    8.342576    0.000000    4.171288
Au    4.171288    8.342576    0.000000
Au    4.171288    8.342576    8.342576
Au   12.513864    8.342576    0.000000
Au   12.513864    8.342576    8.342576
Au    0.000000   10.428220    6.256932
Au    8.342576    6.256932    2.085644
Au    8.342576   14.599508    2.085644
Au    8.342576    2.085644    6.256932
Au    4.171288   10.428220    2.085644
Au   12.513864   10.428220    2.085644
Au    2.085644    8.342576    6.256932
Au   10.428220    4.171288    2.085644
Au   10.428220   12.513864    2.085644
Au   10.428220    0.000000    6.256932
Au    6.256932    8.342576    2.085644
Au   14.599508    8.342576    2.085644
Au    2.085644   10.428220    4.171288
Au   10.428220    6.256932    0.000000
Au   10.428220    6.256932    8.342576
Au   10.428220   14.599508    0.000000
Au   10.428220   14.599508    8.342576
Au   10.428220    2.085644    4.171288
Au    6.256932   10.428220    0.000000
Au    6.256932   10.428220    8.342576
Au   14.599508   10.428220    0.000000
Au   14.599508   10.428220    8.342576
Au    4.171288    4.171288    4.171288
Au   12.513864   12.513864    4.171288
Au   12.513864    4.171288    4.171288
Au    4.171288   12.513864    4.171288
Au    4.171288    6.256932    6.256932
Au   12.513864   14.599508    6.256932
Au   12.513864    6.256932    6.256932
Au    4.171288   14.599508    6.256932
Au    6.256932    4.171288    6.256932
Au   14.599508   12.513864    6.256932
Au   14.599508    4.171288    6.256932
Au    6.256932   12.513864    6.256932
Au    6.256932    6.256932    4.171288
Au   14.599508   14.599508    4.171288
Au   14.599508    6.256932    4.171288
Au    6.256932   14.599508    4.171288
Au    4.171288    8.342576    4.171288
Au   12.513864    8.342576    4.171288
Au    8.342576    4.171288    4.171288
Au    8.342576   12.513864    4.171288
Au    4.171288   10.428220    6.256932
Au   12.513864   10.428220    6.256932
Au    8.342576    6.256932    6.256932
Au    8.342576   14.599508    6.256932
Au    6.256932    8.342576    6.256932
Au   14.599508    8.342576    6.256932
Au   10.428220    4.171288    6.256932
Au   10.428220   12.513864    6.256932
Au    6.256932   10.428220    4.171288
Au   14.599508   10.428220    4.171288
Au   10.428220    6.256932    4.171288
Au   10.428220   14.599508    4.171288
Au    8.342576    8.342576    0.000000
Au    8.342576    8.342576    8.342576
Au    8.342576   10.428220    2.085644
Au   10.428220    8.342576    2.085644
Au   10.428220   10.428220    0.000000
Au   10.428220   10.428220    8.342576
Au    8.342576    8.342576    4.171288
Au    8.342576   10.428220    6.256932
Au   10.428220    8.342576    6.256932
Au   10.428220   10.428220    4.171288
S 8.34258 10.42822 15.974899999999998
C 8.3286 10.42215 14.2134
C 7.13003 10.41619 13.512929999999999
C 9.53788 10.41619 13.512929999999999
S 8.34258 10.42822 9.62812
C 8.345979999999999 10.43207 11.389619999999999
C 9.54455 10.438039999999999 12.090079999999999
C 7.136699999999999 10.438039999999999 12.090079999999999
H 6.23385 10.39589 14.024289999999999
H 10.43064 10.39583 14.03021
H 10.44073 10.45833 11.578729999999998
H 6.24394 10.4584 11.572809999999999
Au 0.0 0.0 17.2604
Au 0.0 2.085644 19.346044
Au 2.085644 0.0 19.346044
Au 2.085644 2.085644 17.2604
Au 0.0 0.0 21.431688
Au 4.171288 0.0 17.2604
Au 12.513864 0.0 17.2604
Au 0.0 4.171288 17.2604
Au 0.0 12.513864 17.2604
Au 0.0 2.085644 23.517332
Au 4.171288 2.085644 19.346044
Au 12.513864 2.085644 19.346044
Au 0.0 6.256932 19.346044
Au 0.0 14.599508 19.346044
Au 2.085644 0.0 23.517332
Au 6.256932 0.0 19.346044
Au 14.599508 0.0 19.346044
Au 2.085644 4.171288 19.346044
Au 2.085644 12.513864 19.346044
Au 2.085644 2.085644 21.431688
Au 6.256932 2.085644 17.2604
Au 14.599508 2.085644 17.2604
Au 2.085644 6.256932 17.2604
Au 2.085644 14.599508 17.2604
Au 0.0 4.171288 21.431688
Au 0.0 12.513864 21.431688
Au 4.171288 0.0 21.431688
Au 12.513864 0.0 21.431688
Au 4.171288 4.171288 17.2604
Au 12.513864 12.513864 17.2604
Au 12.513864 4.171288 17.2604
Au 4.171288 12.513864 17.2604
Au 0.0 6.256932 23.517332
Au 0.0 14.599508 23.517332
Au 4.171288 2.085644 23.517332
Au 12.513864 2.085644 23.517332
Au 4.171288 6.256932 19.346044
Au 12.513864 14.599508 19.346044
Au 12.513864 6.256932 19.346044
Au 4.171288 14.599508 19.346044
Au 2.085644 4.171288 23.517332
Au 2.085644 12.513864 23.517332
Au 6.256932 0.0 23.517332
Au 14.599508 0.0 23.517332
Au 6.256932 4.171288 19.346044
Au 14.599508 12.513864 19.346044
Au 14.599508 4.171288 19.346044
Au 6.256932 12.513864 19.346044
Au 2.085644 6.256932 21.431688
Au 2.085644 14.599508 21.431688
Au 6.256932 2.085644 21.431688
Au 14.599508 2.085644 21.431688
Au 6.256932 6.256932 17.2604
Au 14.599508 14.599508 17.2604
Au 14.599508 6.256932 17.2604
Au 6.256932 14.599508 17.2604
Au 0.0 8.342576 17.2604
Au 8.342576 0.0 17.2604
Au 0.0 10.42822 19.346044
Au 8.342576 2.085644 19.346044
Au 2.085644 8.342576 19.346044
Au 10.42822 0.0 19.346044
Au 2.085644 10.42822 17.2604
Au 10.42822 2.085644 17.2604
Au 0.0 8.342576 21.431688
Au 8.342576 4.171288 17.2604
Au 8.342576 12.513864 17.2604
Au 8.342576 0.0 21.431688
Au 4.171288 8.342576 17.2604
Au 12.513864 8.342576 17.2604
Au 0.0 10.42822 23.517332
Au 8.342576 6.256932 19.346044
Au 8.342576 14.599508 19.346044
Au 8.342576 2.085644 23.517332
Au 4.171288 10.42822 19.346044
Au 12.513864 10.42822 19.346044
Au 2.085644 8.342576 23.517332
Au 10.42822 4.171288 19.346044
Au 10.42822 12.513864 19.346044
Au 10.42822 0.0 23.517332
Au 6.256932 8.342576 19.346044
Au 14.599508 8.342576 19.346044
Au 2.085644 10.42822 21.431688
Au 10.42822 6.256932 17.2604
Au 10.42822 14.599508 17.2604
Au 10.42822 2.085644 21.431688
Au 6.256932 10.42822 17.2604
Au 14.599508 10.42822 17.2604
Au 4.171288 4.171288 21.431688
Au 12.513864 12.513864 21.431688
Au 12.513864 4.171288 21.431688
Au 4.171288 12.513864 21.431688
Au 4.171288 6.256932 23.517332
Au 12.513864 14.599508 23.517332
Au 12.513864 6.256932 23.517332
Au 4.171288 14.599508 23.517332
Au 6.256932 4.171288 23.517332
Au 14.599508 12.513864 23.517332
Au 14.599508 4.171288 23.517332
Au 6.256932 12.513864 23.517332
Au 6.256932 6.256932 21.431688
Au 14.599508 14.599508 21.431688
Au 14.599508 6.256932 21.431688
Au 6.256932 14.599508 21.431688
Au 4.171288 8.342576 21.431688
Au 12.513864 8.342576 21.431688
Au 8.342576 4.171288 21.431688
Au 8.342576 12.513864 21.431688
Au 4.171288 10.42822 23.517332
Au 12.513864 10.42822 23.517332
Au 8.342576 6.256932 23.517332
Au 8.342576 14.599508 23.517332
Au 6.256932 8.342576 23.517332
Au 14.599508 8.342576 23.517332
Au 10.42822 4.171288 23.517332
Au 10.42822 12.513864 23.517332
Au 6.256932 10.42822 21.431688
Au 14.599508 10.42822 21.431688
Au 10.42822 6.256932 21.431688
Au 10.42822 14.599508 21.431688
Au 8.342576 8.342576 17.2604
Au 8.342576 10.42822 19.346044
Au 10.42822 8.342576 19.346044
Au 10.42822 10.42822 17.2604
Au 8.342576 8.342576 21.431688
Au 8.342576 10.42822 23.517332
Au 10.42822 8.342576 23.517332
Au 10.42822 10.42822 21.431688