8

Au    0.000000    0.000000    0.000000
Au    0.000000    4.168000    0.000000
Au    0.000000    2.084000    2.084000
Au    0.000000    6.252000    2.084000
Au    0.000000    0.000000    4.168000
Au    0.000000    4.168000    4.168000
Au    0.000000    2.084000    6.252000
Au    0.000000    6.252000    6.252000
