32  
   
Au 0.000 0.000 0.000
Au 0.000 4.168 0.000
Au 2.084 2.084 0.000
Au 2.084 6.252 0.000
Au 4.168 0.000 0.000
Au 4.168 4.168 0.000
Au 6.252 2.084 0.000
Au 6.252 6.252 0.000
Au 0.000 2.084 2.084
Au 0.000 6.252 2.084
Au 2.084 0.000 2.084
Au 2.084 4.168 2.084
Au 4.168 2.084 2.084
Au 4.168 6.252 2.084
Au 6.252 0.000 2.084
Au 6.252 4.168 2.084
Au 0.000 0.000 4.168
Au 0.000 4.168 4.168
Au 2.084 2.084 4.168
Au 2.084 6.252 4.168
Au 4.168 0.000 4.168
Au 4.168 4.168 4.168
Au 6.252 2.084 4.168
Au 6.252 6.252 4.168
Au 0.000 2.084 6.252
Au 0.000 6.252 6.252
Au 2.084 0.000 6.252
Au 2.084 4.168 6.252
Au 4.168 2.084 6.252
Au 4.168 6.252 6.252
Au 6.252 0.000 6.252
Au 6.252 4.168 6.252
