690
 generated by VMD
 H        11.533255       -0.273686       22.688950
 H        10.026019       -0.430102       22.532436
 O        10.690416        0.085636       23.045698
 H         8.942008       16.632782        8.030611
 H         7.455055       16.734579        7.571388
 O         8.087482       16.162073        8.009552
 H         6.383711       16.236563       10.741331
 H         6.950990       15.555189        9.519059
 O         6.540341       15.334503       10.404369
 H         1.225110        5.796116       12.888998
 H         2.823976        5.985107       12.460504
 O         1.931856        5.738883       12.157830
 H        15.413674        5.378511        9.642602
 H        16.183424        5.200252        8.156794
 O        15.371157        5.571388        8.561101
 H         8.908624       13.101408       11.271370
 H         8.019708       11.872461       10.661633
 O         8.940619       12.210370       10.833130
 H        -2.135560       11.399801       20.841095
 H        -1.378713       10.534019       21.851553
 O        -1.194894       11.314163       21.290731
 H         5.239954        9.587469        8.435987
 H         4.522320        8.953541        9.738432
 O         4.546551        8.912144        8.713168
 H         7.797245       11.323949       22.380419
 H         8.572016       12.596164       22.230864
 O         8.664535       11.672407       22.629349
 H         4.318220       17.986521       22.280930
 H         5.800266       17.945194       22.677870
 O         5.194235       18.463869       22.158859
 H        14.754292       -0.487329       15.306602
 H        15.816610       -1.394018       15.960709
 O        15.033120       -0.875126       16.141935
 H         4.404630        5.701325        7.914644
 H         4.623094        7.173419        8.170284
 O         5.155715        6.312107        8.296367
 H         7.243517        9.703672        7.423966
 H         6.853830       11.203608        7.559722
 O         6.791965       10.404003        8.042559
 H         0.039175        8.246292       16.774935
 H         0.886606        9.490633       16.773802
 O         0.773257        8.639585       16.225090
 H        16.230633        9.417110        7.855838
 H        14.969262       10.308152        7.578164
 O        15.957219       10.405603        7.881526
 H        11.198541        1.679894        7.629691
 H        10.740164        0.541175        8.625100
 O        10.707619        1.535420        8.454749
 H         1.308989        6.774652       11.022506
 H         1.438285        8.328753       10.805317
 O         0.964543        7.565874       10.429537
 H         3.120998        6.712906       15.599390
 H         1.740925        7.380144       16.078238
 O         2.189999        6.495727       15.926619
 H         7.164041       10.830787       12.711338
 H         7.455912       11.247504       14.270035
 O         6.809592       10.781018       13.662639
 H        12.885716       -1.288789       18.749428
 H        12.532601       -2.245928       17.574171
 O        12.363183       -2.084314       18.554691
 H         9.740020        6.548083       15.632388
 H        11.227180        6.291233       16.143761
 O        10.480474        5.857301       15.653368
 H        16.322426        7.201848        7.904295
 H        17.806946        7.650319        7.726374
 O        16.831121        8.028695        7.667365
 H        10.644438        3.019281       20.886700
 H        10.948496        2.034575       22.336487
 O        10.834335        2.939738       21.992964
 H        16.431206       11.003837        9.536216
 H        16.269421       10.012732       10.676681
 O        16.563791       11.011358       10.509574
 H         5.126850        5.900905       11.710560
 H         4.991544        6.661758       13.080077
 O         4.504598        6.548306       12.242992
 H        19.087481        7.359184       22.502058
 H        19.453978        5.936069       22.291172
 O        18.603920        6.452562       22.415567
 H         5.504123       14.452520       22.232468
 H         4.247900       14.053018       21.527521
 O         5.191590       13.892857       21.537895
 H        15.990532       16.749069       11.125777
 H        15.336926       15.582707       11.871098
 O        16.140192       16.137112       11.905713
 H        14.310165        9.983799       18.539135
 H        14.245168       10.090374       16.933376
 O        14.891478       10.035674       17.725048
 H        13.403235        8.807299        7.146828
 H        13.551035        9.165102        8.698696
 O        13.257142        9.514380        7.805636
 H        -0.508215        2.943491       15.577188
 H         0.118566        4.343750       15.117181
 O        -0.078096        3.766437       15.886631
 H         0.688404       11.698128       17.670477
 H         2.300561       11.788186       17.985228
 O         1.603393       11.486911       17.324966
 H        17.309944        4.601862       19.588076
 H        17.965633        3.192996       19.854557
 O        17.054211        3.628376       19.578417
 H        14.564359        0.031692       17.404911
 H        14.679132        1.395279       18.251276
 O        14.414501        0.418243       18.317919
 H        -2.065517        6.314160       12.842666
 H        -1.624620        7.765399       12.820415
 O        -2.015959        7.098308       13.393142
 H         1.807030        0.793912       12.899280
 H         2.998749        1.602860       13.459037
 O         1.980956        1.571894       13.492948
 H        14.026405       13.819435       11.531768
 H        13.734315       14.759870       12.864899
 O        13.968945       14.725179       11.925329
 H         4.868481       13.941774       13.812037
 H         5.221484       14.527740       15.228383
 O         5.391505       14.693751       14.197370
 H        -1.777406       11.041943       17.919079
 H        -1.319725       12.582865       18.243694
 O        -1.022955       11.751473       17.829702
 H        -0.200569       12.874933       14.869067
 H        -0.903760       12.030520       16.090714
 O        -1.072353       12.608249       15.240934
 H        16.819948       14.484146       22.109297
 H        17.494825       13.112783       21.748394
 O        17.710011       14.058644       21.953297
 H         3.259442        3.986378        6.923109
 H         3.276658        3.694923        8.455561
 O         3.192581        4.477890        7.805957
 H         1.802295        8.207959        7.623962
 H         1.494063        7.372618        9.029124
 O         1.515243        7.349107        7.965425
 H        -2.622156        2.986927       16.940237
 H        -1.951613        3.114792       18.390682
 O        -2.739069        2.842193       17.908365
 H        11.705181        7.780784       17.895245
 H        12.839206        7.544996       16.598833
 O        12.377586        7.190687       17.458290
 H         0.739610        6.158812       14.829709
 H        -0.656515        6.409951       14.041584
 O         0.151412        5.722414       14.143139
 H         4.163673        2.416217       10.320056
 H         2.578617        2.835829       10.515968
 O         3.374380        2.557411        9.814552
 H        10.595214       11.794745       12.006388
 H        12.142385       11.692544       12.470738
 O        11.289356       12.236097       12.539186
 H         2.410043        9.208578       22.349007
 H         1.333516        9.107152       21.324251
 O         1.430627        9.183177       22.353075
 H         7.623600       14.295844        7.487776
 H         8.289313       13.075248        7.819239
 O         7.426561       13.353944        7.531319
 H        13.204556       11.549650        7.706486
 H        12.923913       13.175597        8.088769
 O        13.544036       12.378623        8.088010
 H         2.953442        9.792466       12.076862
 H         1.751924       10.514424       11.382362
 O         1.924289        9.745378       11.969844
 H         2.249391        2.184832       20.515919
 H         2.718143        2.481831       19.135767
 O         1.879060        2.357289       19.628002
 H         2.525780       16.610224       16.242687
 H         1.951875       15.544111       17.225992
 O         2.446117       15.656179       16.348040
 H        -3.720003        6.799511       15.293339
 H        -3.992170        8.266374       14.706033
 O        -4.356843        7.573128       15.215657
 H        12.511395        8.000991       20.501398
 H        11.215284        8.934363       20.226727
 O        11.737615        8.490361       20.942902
 H        13.788147        4.164403       18.405090
 H        12.768848        5.454825       18.308849
 O        12.934836        4.552055       18.710382
 H        12.747089        5.133904       22.296886
 H        12.337079        3.650976       22.378952
 O        13.133398        4.228958       22.369745
 H         9.898073        8.925908       14.543808
 H        10.008090       10.381516       14.391498
 O        10.547773        9.597129       14.362639
 H        15.293685       14.546711       23.357841
 H        14.161984       14.586977       22.260685
 O        15.083466       14.861788       22.439768
 H         7.921085        3.129028        9.417065
 H         9.426545        3.525097        9.428946
 O         8.666300        3.285133       10.013288
 H         1.582495       14.631970       21.640192
 H         2.463669       13.623633       22.391155
 O         2.500468       14.608277       22.064789
 H        13.480343       10.644432       20.895618
 H        13.399229       11.650153       19.739542
 O        13.838052       10.872433       19.995892
 H        15.600740        1.285742       22.465477
 H        14.985229        2.661995       22.807772
 O        15.847313        2.279547       22.579113
 H        10.081454        3.761691       19.123133
 H        11.678596        3.695613       19.090015
 O        10.842816        3.264596       19.489521
 H         8.940187       11.793302       16.263203
 H         8.516100       13.009852       15.285587
 O         8.798225       12.038618       15.321478
 H         3.816051        1.157369        7.212453
 H         3.666028        1.257580        8.644204
 O         4.331572        0.876056        7.988947
 H         1.729330       12.147319        9.104465
 H         2.508878       12.670736        7.760367
 O         1.731190       12.093580        8.059987
 H         7.741757       14.930480       11.472039
 H         9.366853       15.403395       11.788267
 O         8.657421       14.716865       11.904848
 H         1.340824       14.533542        8.713779
 H         1.100444       15.124079       10.163062
 O         1.140585       15.312868        9.195580
 H         1.971397       -2.222741       14.600426
 H         1.541672       -0.859490       15.325148
 O         1.284092       -1.507551       14.568750
 H         5.749443       12.347310       21.316399
 H         6.500942       11.046370       20.656981
 O         6.214578       11.417233       21.563734
 H         0.394361        8.467312       19.715672
 H         0.241365       10.095749       19.961559
 O         0.878342        9.347684       19.700434
 H        10.529759        7.227706       10.202392
 H        11.100202        6.515666       11.358190
 O        11.220678        6.593983       10.387869
 H        19.436560        2.627930       12.256089
 H        19.541710        4.116699       11.848139
 O        19.243689        3.258629       11.509877
 H         2.566704        0.993998       22.629253
 H         1.774498        2.497998       22.464523
 O         2.601304        1.937404       22.194574
 H         5.558442        2.648137        8.300397
 H         6.428022        3.964653        7.833108
 O         6.513474        3.020808        8.205934
 H        12.821606        7.836630        9.898983
 H        13.390021        8.769160       10.933328
 O        13.620797        8.317980       10.094256
 H        13.478397        7.335213       18.894564
 H        14.207756        6.358936       19.909151
 O        13.993638        7.291544       19.766497
 H        16.174719        4.226089       11.171595
 H        14.539896        4.566429       11.289932
 O        15.546173        5.021180       11.194736
 H        13.319262        3.248060       15.060337
 H        14.286970        3.373841       13.820045
 O        14.268243        2.980835       14.792131
 H         5.898561        3.668048       15.617758
 H         6.338329        2.155907       15.933393
 O         5.512990        2.777018       15.879717
 H        12.796978        0.124948       14.811749
 H        13.818650        1.371380       14.430733
 O        13.630476        0.358975       14.379014
 H        10.384779        9.282339        9.514843
 H        11.540895        9.586663        8.268089
 O        10.695898        9.836660        8.706244
 H         2.356183        5.842610       17.262081
 H         2.080220        4.628208       18.056463
 O         2.417382        5.541890       18.198174
 H        16.292246        7.182202       18.506033
 H        15.822117        8.553612       17.617846
 O        16.409109        7.696702       17.607958
 H         6.745043        9.696190       18.906195
 H         5.975298       10.959367       18.420280
 O         6.776641       10.691577       18.974346
 H         5.078989        2.162133       14.237505
 H         4.976647        0.756855       13.695419
 O         4.666006        1.717580       13.411533
 H        18.794590        6.180136       19.130585
 H        18.272955        6.420501       20.541050
 O        17.965673        6.412084       19.595419
 H         1.249668       11.106293       14.238152
 H         2.014747       11.420275       15.640537
 O         2.152309       11.208074       14.634323
 H         7.355377        0.589084       23.320517
 H         7.102099        1.109578       21.831274
 O         6.946354        0.289444       22.451139
 H         0.167839        9.176402       14.393975
 H         0.577279        9.540191       12.964272
 O        -0.216258        9.378798       13.546586
 H        15.784369       14.128153        7.793546
 H        16.637278       15.161961        8.674024
 O        15.704709       14.916460        8.400620
 H         9.355480        3.589928       13.485356
 H        10.077441        2.205849       13.063061
 O         9.847517        2.808405       13.869174
 H         3.863295       14.651416       16.678223
 H         5.102999       14.356597       17.469589
 O         4.666168       14.063414       16.640619
 H         8.851500        5.650686       12.509076
 H         8.496144        4.361681       11.473084
 O         8.495937        4.726257       12.477221
 H         0.152267        1.616570        7.068326
 H         0.637852        1.416003        8.498271
 O         0.316371        2.136151        7.878770
 H         7.179373       15.496314       18.389769
 H         8.277800       16.358282       17.417027
 O         8.098594       15.770804       18.242584
 H        11.550297       -1.348909        7.051481
 H        11.084800       -1.879061        8.507640
 O        11.700351       -1.241948        7.999681
 H         3.622268        9.980524       18.243099
 H         2.503861        9.229185       19.169514
 O         3.497865        9.211559       18.828892
 H         2.667214       12.718003       20.135336
 H         2.423949       13.875495       19.106247
 O         2.876524       12.991921       19.243408
 H        12.604037        4.199522       12.306359
 H        13.185675        2.886997       11.602778
 O        13.402852        3.810069       11.953695
 H        11.516737       17.007572       16.522919
 H        11.496200       15.972680       17.610977
 O        11.612508       15.951406       16.679234
 H        11.673721        4.143072        8.713047
 H        11.109512        5.262425        9.608284
 O        10.837448        4.575922        8.990287
 H         2.336402       10.613018        7.558256
 H         3.399361        9.540900        7.853845
 O         2.707042        9.736434        7.198495
 H        15.319570        8.489617       22.742865
 H        14.518891        9.854952       22.800621
 O        15.454730        9.457981       22.809059
 H        13.256078        0.627219       11.365501
 H        13.121380        1.409252        9.996147
 O        12.958523        1.450417       10.965147
 H        13.876073       10.378432       12.847806
 H        13.750583       11.128570       11.440209
 O        13.332355       10.379107       12.028487
 H        13.913431        6.373469        7.674814
 H        12.473061        6.315168        7.001435
 O        13.079745        6.803817        7.589936
 H        10.902850        3.898198       16.585999
 H        10.970819        3.205168       15.116124
 O        11.420013        3.317554       15.992474
 H        15.480508       11.247174       14.081016
 H        15.934874        9.920704       13.527709
 O        15.117245       10.317642       13.946542
 H        17.275492        2.912101       22.685516
 H        17.933334        4.280004       22.743818
 O        18.155207        3.361555       22.720839
 H         9.120272       14.587333       18.508295
 H        10.490807       13.881985       18.747437
 O         9.508289       13.769547       18.916464
 H        -5.509866       15.031248       20.843029
 H        -5.683059       13.620371       21.574179
 O        -5.128484       14.446421       21.600998
 H        10.160996       11.988358       21.603550
 H        11.026835       11.864045       20.330601
 O        11.114021       12.124067       21.303177
 H         2.755370       11.011868       21.802397
 H         1.297978       11.540747       22.121824
 O         2.229002       11.861286       21.915588
 H        15.781226       15.004212       18.752522
 H        16.479982       14.143146       19.917946
 O        16.508080       14.261008       18.921482
 H         9.548041       12.378923        9.453462
 H        10.119906       11.634046        8.212738
 O         9.792881       12.542808        8.438773
 H         5.204844        2.879536       19.141027
 H         4.770913        2.530476       17.758114
 O         4.595389        2.239590       18.694927
 H        12.497629       10.897972       22.984701
 H        12.411304        9.542673       22.062321
 O        12.959716       10.080929       22.631594
 H         4.722870       13.012877        9.355265
 H         5.650459       13.948918       10.251578
 O         5.198592       13.037221       10.199669
 H        11.590314        7.314932       22.043392
 H        10.734283        6.243542       22.736221
 O        11.651151        6.362486       22.448126
 H         3.138520        3.332331       16.140398
 H         1.515778        3.262973       16.359966
 O         2.427660        2.937486       16.684406
 H        12.152831        6.438169       13.326297
 H        10.987247        5.588452       13.850895
 O        11.530864        5.708037       12.999883
 H         0.808937       14.465178       12.506598
 H        -0.310445       15.345203       11.789999
 O         0.636271       14.900476       11.679496
 H         3.570423       10.440800       14.611139
 H         5.192505       10.145503       14.287492
 O         4.456619       10.120690       14.991614
 H         8.827471        5.193841       17.763918
 H         7.960873        4.660798       19.130100
 O         8.835918        4.650145       18.621792
 H         8.792206        1.899578       15.056517
 H         8.399212        0.460094       15.511393
 O         8.363369        1.397533       15.823849
 H         3.794792        4.927693       22.276548
 H         3.727592        6.141201       21.326504
 O         3.218808        5.682687       22.084223
 H        10.322286       14.268036       15.005855
 H        10.931232       13.578139       13.632129
 O        11.102450       14.238514       14.400097
 H        12.725002       11.505859       16.107216
 H        11.897280       10.136224       15.494488
 O        12.547090       10.471811       16.130856
 H        -0.817291        8.123053       10.778111
 H        -2.413923        8.172681       10.571168
 O        -1.665524        8.599348       11.027135
 H         0.081978       11.877212       10.510231
 H         1.012248       13.101199       11.195004
 O         0.993864       12.195007       10.707738
 H        14.263194       12.489617        9.844776
 H        15.351220       12.033865       10.838770
 O        14.362688       12.361910       10.859941
 H        17.749546        1.126485       14.382024
 H        16.451956        1.474900       13.708190
 O        16.856720        1.471859       14.574014
 H         3.892773       14.706128        8.243775
 H         4.161611       13.561172        6.967338
 O         3.788074       13.700523        7.905107
 H        14.511034        0.687103        8.401670
 H        12.985687        0.456187        8.163670
 O        13.622330        1.036770        8.595634
 H         5.702375        5.709350        9.683839
 H         6.697951        6.077663       10.766599
 O         6.029740        5.395564       10.590544
 H        -2.193375        6.306462       16.744869
 H        -2.148517        5.098228       15.722203
 O        -2.760191        5.679669       16.248312
 H        15.374701        5.803852       22.202503
 H        16.549034        6.680746       22.830399
 O        15.602554        6.723794       22.627554
 H        10.104475        9.938642       18.152601
 H        11.534529        9.999625       17.814407
 O        10.959570        9.520143       18.446552
 H         8.135900       11.147525       18.042269
 H         9.126501       12.313997       18.225687
 O         9.124753       11.361285       17.921877
 H         4.604128       12.429975       11.833438
 H         5.291656       11.964517       13.246074
 O         4.497876       12.375515       12.849936
 H        15.838702        4.217749       20.865437
 H        14.327847        4.355560       21.182301
 O        15.115623        4.852732       20.936886
 H         7.351181        4.532318       13.858624
 H         7.220983        5.603492       14.965138
 O         6.994194        4.639287       14.748726
 H        11.347336        1.383034       11.287781
 H         9.710580        1.966600       11.018136
 O        10.374717        1.491827       11.621980
 H         0.222178       14.865351       18.618425
 H         1.181903       16.118265       19.157158
 O         1.125471       15.254436       18.668194
 H         7.122747       14.533314       14.259924
 H         8.484528       14.591806       13.424468
 O         8.123456       14.500081       14.366416
 H         4.815548       12.279814       17.151436
 H         4.655802       10.941788       16.373621
 O         4.730401       11.319370       17.365730
 H        11.398256        9.432182       11.761680
 H         9.915764        8.940681       12.061752
 O        10.584747        9.060160       11.333980
 H         8.014253        1.465311       19.867512
 H         7.030535        2.638316       20.091156
 O         7.552737        1.974126       20.538004
 H         0.654884        4.066617        7.769319
 H         0.864734        5.535713        7.925151
 O         0.140636        4.929409        7.967278
 H         5.366675        9.810697       11.602432
 H         4.750837        8.366462       11.794554
 O         4.540323        9.275489       11.426349
 H         4.994480       10.389174       21.640352
 H         4.175416        9.501980       20.617907
 O         4.250835        9.681479       21.606714
 H         5.477051       17.654793       12.155558
 H         5.929711       18.811958       10.986675
 O         5.773305       17.839005       11.230187
 H        11.582095        1.579581       19.627666
 H        12.979810        0.826378       19.111631
 O        12.095405        0.719994       19.608957
 H        13.740033       13.401871       15.879034
 H        12.159413       13.462978       15.269457
 O        12.846360       13.010022       15.970892
 H         9.088807       14.246255       20.638290
 H         8.030804       14.750180       21.704809
 O         8.892739       14.245986       21.620335
 H        17.774935        2.928148       10.775791
 H        17.249048        2.441561        9.300113
 O        16.961092        2.669457       10.237777
 H         5.675227        5.141119       19.591770
 H         6.154122        4.238921       20.738897
 O         6.203669        4.301156       19.769472
 H        14.025260        4.326139        8.122081
 H        13.641339        2.781240        8.096684
 O        13.368330        3.679879        7.762799
 H         0.148994       12.721645        7.234734
 H        -1.124707       11.598639        7.179653
 O        -0.883077       12.585165        7.110450
 H         6.102053       11.469785       10.324531
 H         6.900673       10.188451        9.968398
 O         6.759632       10.816023       10.677917
 H         5.530531       -0.989083       19.769608
 H         5.044518        0.338992       18.974829
 O         5.548603       -0.530647       18.894039
 H         5.426920        7.160808       15.776201
 H         4.533088        8.410928       15.278996
 O         4.501567        7.390904       15.313307
 H         3.848090        6.165732       19.057285
 H         4.650310        7.375422       19.594646
 O         4.493776        6.429055       19.812069
 Au1        1.484320        0.856970        0.000000
 Au1        4.452970        0.856970        0.000000
 Au1        7.421620        0.856970        0.000000
 Au1       10.390260        0.856970        0.000000
 Au1       13.358910        0.856970        0.000000
 Au1       16.327560        0.856970        0.000000
 Au1        0.000000        3.427900        0.000000
 Au1        2.968650        3.427900        0.000000
 Au1        5.937290        3.427900        0.000000
 Au1        8.905940        3.427900        0.000000
 Au1       11.874590        3.427900        0.000000
 Au1       14.843230        3.427900        0.000000
 Au1        1.484320        5.998820        0.000000
 Au1        4.452970        5.998820        0.000000
 Au1        7.421620        5.998820        0.000000
 Au1       10.390260        5.998820        0.000000
 Au1       13.358910        5.998820        0.000000
 Au1       16.327560        5.998820        0.000000
 Au1        0.000000        8.569740        0.000000
 Au1        2.968650        8.569740        0.000000
 Au1        5.937290        8.569740        0.000000
 Au1        8.905940        8.569740        0.000000
 Au1       11.874590        8.569740        0.000000
 Au1       14.843230        8.569740        0.000000
 Au1        1.484320       11.140670        0.000000
 Au1        4.452970       11.140670        0.000000
 Au1        7.421620       11.140670        0.000000
 Au1       10.390260       11.140670        0.000000
 Au1       13.358910       11.140670        0.000000
 Au1       16.327560       11.140670        0.000000
 Au1        0.000000       13.711590        0.000000
 Au1        2.968650       13.711590        0.000000
 Au1        5.937290       13.711590        0.000000
 Au1        8.905940       13.711590        0.000000
 Au1       11.874590       13.711590        0.000000
 Au1       14.843230       13.711590        0.000000
 Au2        0.084223        1.715825        2.429746
 Au2        3.035575        1.909520        2.442356
 Au2        5.981778        1.747343        2.291311
 Au2        8.910388        1.745379        2.312849
 Au2       11.912217        1.777535        2.277629
 Au2       15.020822        1.715978        2.479770
 Au2        1.534850        4.319763        2.426707
 Au2        4.663890        4.305733        2.302773
 Au2        7.364362        4.358702        2.393038
 Au2       10.386200        4.294880        2.378038
 Au2       13.240276        4.341535        2.390356
 Au2       16.379927        4.155489        2.380275
 Au2        0.021936        6.874000        2.287298
 Au2       3.101459        6.865979        2.393342
 Au2       6.098855        7.096942        2.482653
 Au2        9.011048        6.864716        2.321020
 Au2       11.840678        6.896472        2.334814
 Au2       14.813834        6.741992        2.408748
 Au2        1.567628        9.324174        2.385057
 Au2        4.573339        9.459408        2.326339
 Au2        7.562668        9.531406        2.295391
 Au2       10.372674        9.574410        2.402872
 Au2       13.454855        9.430232        2.410211
 Au2       16.239294        9.369308        2.200613
 Au2        0.086114       12.071424        2.242033
 Au2        3.173905       11.944338        2.302312
 Au2        6.061887       12.150245        2.196996
 Au2        8.916949       12.115888        2.451961
 Au2       11.920784       11.988368        2.403121
 Au2       14.999037       12.071700        2.310180
 Au2        1.420295       14.721537        2.314021
 Au2        4.294683       14.760589        2.291716
 Au2        7.455664       14.692264        2.481083
 Au2       10.305842       14.594085        2.392362
 Au2       13.363600       14.628695        2.260065
 Au2       16.305094       14.487978        2.509309
 Au3        0.144395        0.038721        4.833989
 Au3        2.909505        0.160170        4.729991
 Au3        5.791423       -0.091545        4.638881
 Au3        8.852302        0.000723        4.932424
 Au3       11.935488        0.106695        4.752480
 Au3       14.813580        0.078514        4.778059
 Au3        1.452097        2.716054        4.896483
 Au3        4.325507        2.670145        4.888667
 Au3        7.083548        2.420286        4.764882
 Au3       10.397919        2.471248        4.800616
 Au3       13.367785        2.558570        5.031042
 Au3       16.461081        2.545105        4.876466
 Au3       -0.021331        5.131521        4.690751
 Au3        3.099024        5.283083        4.806474
 Au3        5.829605        5.265532        4.940194
 Au3        8.724488        5.089272        4.661019
 Au3       11.786045        4.920201        4.774895
 Au3       14.824347        4.949413        4.820361
 Au3        1.515009        7.654033        4.754165
 Au3        4.438254        7.796038        4.846996
 Au3        7.535345        8.204544        4.695685
 Au3       10.412003        7.604007        4.715653
 Au3       13.333925        7.630075        4.688728
 Au3       16.204067        7.687478        4.794963
 Au3       -0.123384       10.016967        4.619610
 Au3        2.869069       10.268454        4.896011
 Au3        5.820647       10.363351        4.852000
 Au3        9.029118       10.512507        5.032759
 Au3       11.915880       10.297619        4.741277
 Au3       14.866116       10.170270        4.893012
 Au3        1.397544       12.858805        4.592725
 Au3        4.427868       12.869214        4.639887
 Au3        7.510235       12.828476        4.897291
 Au3       10.416388       13.006985        4.867681
 Au3       13.340522       12.952614        4.841226
 Au3       16.235428       12.772128        4.773820
 AuB1        7.169460        6.525467        6.976007
 AuB1        9.976705        5.714140        6.938786
 AuB1        8.994730        8.540714        7.194109
 AuT1        8.142808        7.729006        9.639604
 AuW1        7.892048        7.627059       12.340828
 AuW2        7.794240        7.897546       15.096498
 AuW3        7.661997        7.651762       17.808334
 AuT2        7.250516        7.450182       20.671511
 AuB2        7.555284        6.010485       23.069305
 AuB2        8.855008        3.623505       23.301336
 AuB2        5.798538        8.199170       23.022255
 AuB2        8.760015        8.541258       23.350788
 Au4        0.106185        1.610776       25.457617
 Au4        3.093893        1.553632       25.393566
 Au4        6.039712        1.644770       25.340807
 Au4        8.945539        1.758077       25.338795
 Au4       11.821237        1.581839       25.663631
 Au4       14.856091        1.694781       25.478436
 Au4        1.421799        4.163589       25.500504
 Au4        4.209960        4.120170       25.362381
 Au4        7.066199        4.343543       25.439251
 Au4       10.439257        4.366532       25.467274
 Au4       13.317755        4.199469       25.307283
 Au4       16.264275        4.165655       25.403440
 Au4        0.043115        6.675498       25.437597
 Au4        2.754451        6.954007       25.578793
 Au4        5.647810        6.784941       25.484549
 Au4        9.026361        6.791356       25.497105
 Au4       12.110703        6.810079       25.431314
 Au4       15.029404        6.768080       25.288515
 Au4        1.352033        9.592488       25.444548
 Au4        4.438102        9.513746       25.120457
 Au4        7.199304        9.492221       25.466976
 Au4       10.600253        9.505128       25.043863
 Au4       13.386396        9.341592       25.529835
 Au4       16.328316        9.387909       25.386927
 Au4        0.055808       12.032848       25.419615
 Au4        3.224796       12.036508       25.441536
 Au4        5.886091       12.048709       25.206259
 Au4        8.978716       11.932308       25.241024
 Au4       12.025982       11.961631       25.452717
 Au4       14.922776       12.022202       25.423960
 Au4        1.685981       14.380407       25.255028
 Au4        4.552572       14.583339       25.482014
 Au4        7.528966       14.462496       25.468204
 Au4       10.497537       14.385376       25.438002
 Au4       13.537088       14.543034       25.587955
 Au4       16.493980       14.453564       25.265139
 Au5        0.232806       -0.125311       27.694984
 Au5        3.076207       -0.178555       27.849108
 Au5        5.940309       -0.086915       27.865185
 Au5        8.981169        0.070330       27.823788
 Au5       11.936066       -0.013860       27.937012
 Au5       15.040195        0.098540       27.888182
 Au5        1.616033        2.425014       27.805891
 Au5        4.450006        2.546139       27.934711
 Au5        7.405281        2.416516       27.776541
 Au5       10.430487        2.520454       27.877207
 Au5       13.375274        2.572996       27.812973
 Au5       16.607508        2.460575       27.875883
 Au5        0.072258        5.167685       27.883728
 Au5        3.097841        5.164979       27.750820
 Au5        5.945329        5.094607       27.874084
 Au5        8.858924        4.891665       27.853554
 Au5       11.884040        4.997731       27.852423
 Au5       14.747115        5.125076       27.729876
 Au5        1.332788        7.964335       27.829212
 Au5        4.377969        7.851737       27.826597
 Au5        7.360059        7.644445       27.692329
 Au5       10.327201        7.546772       27.894371
 Au5       13.334758        7.620645       27.875612
 Au5       16.337637        7.701623       27.853710
 Au5       -0.032813       10.588039       27.940437
 Au5        2.942412       10.289526       27.794788
 Au5        5.991726       10.199855       27.883762
 Au5        8.977171       10.214976       27.825752
 Au5       11.833806       10.159756       27.728897
 Au5       14.738835       10.217400       27.871979
 Au5        1.699819       12.782872       27.928329
 Au5        4.763274       12.715063       27.842558
 Au5        7.608877       12.696394       27.704775
 Au5       10.391137       12.864326       27.866478
 Au5       13.384243       12.780789       27.907618
 Au5       16.279823       12.963821       27.864330
