64

Li    0.000000    0.000000    0.000000
Li    0.000000    2.085644    2.085644
Li    2.085644    0.000000    2.085644
Li    2.085644    2.085644    0.000000
Li    0.000000    4.171288    0.000000
Li    0.000000   12.513864    0.000000
Li    4.171288    0.000000    0.000000
Li   12.513864    0.000000    0.000000
Li    0.000000    6.256932    2.085644
Li    0.000000   14.599508    2.085644
Li    4.171288    2.085644    2.085644
Li   12.513864    2.085644    2.085644
Li    2.085644    4.171288    2.085644
Li    2.085644   12.513864    2.085644
Li    6.256932    0.000000    2.085644
Li   14.599508    0.000000    2.085644
Li    2.085644    6.256932    0.000000
Li    2.085644   14.599508    0.000000
Li    6.256932    2.085644    0.000000
Li   14.599508    2.085644    0.000000
Li    0.000000    8.342576    0.000000
Li    8.342576    0.000000    0.000000
Li    0.000000   10.428220    2.085644
Li    8.342576    2.085644    2.085644
Li    2.085644    8.342576    2.085644
Li   10.428220    0.000000    2.085644
Li    2.085644   10.428220    0.000000
Li   10.428220    2.085644    0.000000
Li    4.171288    4.171288    0.000000
Li   12.513864   12.513864    0.000000
Li   12.513864    4.171288    0.000000
Li    4.171288   12.513864    0.000000
Li    4.171288    6.256932    2.085644
Li   12.513864   14.599508    2.085644
Li   12.513864    6.256932    2.085644
Li    4.171288   14.599508    2.085644
Li    6.256932    4.171288    2.085644
Li   14.599508   12.513864    2.085644
Li   14.599508    4.171288    2.085644
Li    6.256932   12.513864    2.085644
Li    6.256932    6.256932    0.000000
Li   14.599508   14.599508    0.000000
Li   14.599508    6.256932    0.000000
Li    6.256932   14.599508    0.000000
Li    4.171288    8.342576    0.000000
Li   12.513864    8.342576    0.000000
Li    8.342576    4.171288    0.000000
Li    8.342576   12.513864    0.000000
Li    4.171288   10.428220    2.085644
Li   12.513864   10.428220    2.085644
Li    8.342576    6.256932    2.085644
Li    8.342576   14.599508    2.085644
Li    6.256932    8.342576    2.085644
Li   14.599508    8.342576    2.085644
Li   10.428220    4.171288    2.085644
Li   10.428220   12.513864    2.085644
Li    6.256932   10.428220    0.000000
Li   14.599508   10.428220    0.000000
Li   10.428220    6.256932    0.000000
Li   10.428220   14.599508    0.000000
Li    8.342576    8.342576    0.000000
Li    8.342576   10.428220    2.085644
Li   10.428220    8.342576    2.085644
Li   10.428220   10.428220    0.000000
