   60
 
Au      0.000000    0.000000    0.000000
Au      0.000000    2.955000    0.000000
Au      0.000000    5.911000    0.000000
Au      2.956000    0.000000    0.000000
Au      2.956000    2.955000    0.000000
Au      2.956000    5.911000    0.000000
Au      5.912000    0.000000    0.000000
Au      5.912000    2.955000    0.000000
Au      5.912000    5.911000    0.000000
Au      8.670000    0.000000    0.000000
Au      8.670000    2.955000    0.000000
Au      8.670000    5.911000    0.000000
Au     11.626000    0.000000    0.000000
Au     11.626000    2.955000    0.000000
Au     11.626000    5.911000    0.000000
Au      1.478000    1.478000    2.090000
Au      1.478000    4.433000    2.090000
Au      1.478000    7.389000    2.090000
Au      4.434000    1.478000    2.090000
Au      4.434000    4.433000    2.090000
Au      4.434000    7.389000    2.090000
Au      7.192000    1.478000    2.090000
Au      7.192000    4.433000    2.090000
Au      7.192000    7.389000    2.090000
Au     10.148000    1.478000    2.090000
Au     10.148000    4.433000    2.090000
Au     10.148000    7.389000    2.090000
Au     13.104000    1.478000    2.090000
Au     13.104000    4.433000    2.090000
Au     13.104000    7.389000    2.090000
Au      0.000000    0.000000    4.180000
Au      0.000000    2.955000    4.180000
Au      0.000000    5.911000    4.180000
Au      2.956000    0.000000    4.180000
Au      2.956000    2.955000    4.180000
Au      2.956000    5.911000    4.180000
Au      5.912000    0.000000    4.180000
Au      5.912000    2.955000    4.180000
Au      5.912000    5.911000    4.180000
Au      8.670000    0.000000    4.180000
Au      8.670000    2.955000    4.180000
Au      8.670000    5.911000    4.180000
Au     11.626000    0.000000    4.180000
Au     11.626000    2.955000    4.180000
Au     11.626000    5.911000    4.180000
Au      1.478000    1.478000    6.270000
Au      1.478000    4.433000    6.270000
Au      1.478000    7.389000    6.270000
Au      4.434000    1.478000    6.270000
Au      4.434000    4.433000    6.270000
Au      4.434000    7.389000    6.270000
Au      7.192000    1.478000    6.270000
Au      7.192000    4.433000    6.270000
Au      7.192000    7.389000    6.270000
Au     10.148000    1.478000    6.270000
Au     10.148000    4.433000    6.270000
Au     10.148000    7.389000    6.270000
Au     13.104000    1.478000    6.270000
Au     13.104000    4.433000    6.270000
Au     13.104000    7.389000    6.270000
