       9
 
 Au         0.0000000000        0.0000000000        0.0000000000
 Au         0.0000000000        0.0000000000        0.0000000000
 Au         0.0000000000        0.0000000000        0.0000000000
 Au         0.0000000002        0.0000000002       -0.0000006166
 Au         0.0000000001        0.0000000001       -0.0000000033
 Au         0.0000000002        0.0000000002        0.0000006115
 Au         0.0000000000        0.0000000000        0.0000000000
 Au         0.0000000000        0.0000000000        0.0000000000
 Au         0.0000000000        0.0000000000        0.0000000000
