113   
   
Au 1.787 1.281 0.000
Au 0.309 2.759 2.090
Au 1.787 1.281 4.180
Au 0.309 2.759 6.270
Au 4.743 1.281 0.000
Au 3.265 2.759 2.090
Au 4.743 1.281 4.180
Au 3.265 2.759 6.270
Au 7.699 1.281 0.000
Au 6.221 2.759 2.090
Au 7.699 1.281 4.180
Au 6.221 2.759 6.270
Au 1.787 4.236 0.000
Au 0.309 5.714 2.090
Au 1.787 4.236 4.180
Au 0.309 5.714 6.270
Au 4.743 4.236 0.000
Au 3.265 5.714 2.090
Au 4.743 4.236 4.180
Au 3.265 5.714 6.270
Au 7.699 4.236 0.000
Au 6.221 5.714 2.090
Au 7.699 4.236 4.180
Au 6.221 5.714 6.270
Au 1.787 7.192 0.000
Au 0.309 8.670 2.090
Au 1.787 7.192 4.180
Au 0.309 8.670 6.270
Au 4.743 7.192 0.000
Au 3.265 8.670 2.090
Au 4.743 7.192 4.180
Au 3.265 8.670 6.270
Au 7.699 7.192 0.000
Au 6.221 8.670 2.090
Au 7.699 7.192 4.180
Au 6.221 8.670 6.270
Au 1.787 1.281 8.360
Au 1.787 4.236 8.360
Au 1.787 7.192 8.360
Au 4.743 1.281 8.360
Au 4.743 4.236 8.360
Au 4.743 7.192 8.360
Au 7.699 1.281 8.360
Au 7.699 4.236 8.360
Au 7.699 7.192 8.360
Au 0.309 2.759 10.450
Au 0.309 5.714 10.450
Au 0.309 8.670 10.450
Au 3.265 2.759 10.450
Au 3.265 5.714 10.450
Au 3.265 8.670 10.450
Au 6.221 2.759 10.450
Au 6.221 5.714 10.450
Au 6.221 8.670 10.450
Au 1.740 4.191 12.432
Au 1.740 7.241 12.436
Au 4.790 4.191 12.432
Au 4.790 7.241 12.436
Au 3.265 5.712 14.293
Au 3.266 5.754 16.987
H 3.253 5.723 18.859
H 3.252 5.724 19.739
Au 3.246 5.719 21.615
Au 3.259 5.721 24.267
Au 1.780 4.229 26.269
Au 1.780 7.200 26.269
Au 4.749 4.230 26.268
Au 4.749 7.198 26.268
Au 0.309 2.759 28.270
Au 0.309 5.714 28.270
Au 0.309 8.670 28.270
Au 3.265 2.759 28.270
Au 3.265 5.714 28.270
Au 3.265 8.670 28.270
Au 6.221 2.759 28.270
Au 6.221 5.714 28.270
Au 6.221 8.670 28.270
Au 1.787 1.281 30.360
Au 0.309 2.759 32.450
Au 1.787 1.281 34.540
Au 0.309 2.759 36.630
Au 4.743 1.281 30.360
Au 3.265 2.759 32.450
Au 4.743 1.281 34.540
Au 3.265 2.759 36.630
Au 7.699 1.281 30.360
Au 6.221 2.759 32.450
Au 7.699 1.281 34.540
Au 6.221 2.759 36.630
Au 1.787 4.236 30.360
Au 0.309 5.714 32.450
Au 1.787 4.236 34.540
Au 0.309 5.714 36.630
Au 4.743 4.236 30.360
Au 3.265 5.714 32.450
Au 4.743 4.236 34.540
Au 3.265 5.714 36.630
Au 7.699 4.236 30.360
Au 6.221 5.714 32.450
Au 7.699 4.236 34.540
Au 6.221 5.714 36.630
Au 1.787 7.192 30.360
Au 0.309 8.670 32.450
Au 1.787 7.192 34.540
Au 0.309 8.670 36.630
Au 4.743 7.192 30.360
Au 3.265 8.670 32.450
Au 4.743 7.192 34.540
Au 3.265 8.670 36.630
Au 7.699 7.192 30.360
Au 6.221 8.670 32.450
Au 7.699 7.192 34.540
Au 6.221 8.670 36.630
