113   
   
Au 1.787 1.281 0.000
Au 0.309 2.759 2.090
Au 1.787 1.281 4.180
Au 0.309 2.759 6.270
Au 4.743 1.281 0.000
Au 3.265 2.759 2.090
Au 4.743 1.281 4.180
Au 3.265 2.759 6.270
Au 7.699 1.281 0.000
Au 6.221 2.759 2.090
Au 7.699 1.281 4.180
Au 6.221 2.759 6.270
Au 1.787 4.236 0.000
Au 0.309 5.714 2.090
Au 1.787 4.236 4.180
Au 0.309 5.714 6.270
Au 4.743 4.236 0.000
Au 3.265 5.714 2.090
Au 4.743 4.236 4.180
Au 3.265 5.714 6.270
Au 7.699 4.236 0.000
Au 6.221 5.714 2.090
Au 7.699 4.236 4.180
Au 6.221 5.714 6.270
Au 1.787 7.192 0.000
Au 0.309 8.670 2.090
Au 1.787 7.192 4.180
Au 0.309 8.670 6.270
Au 4.743 7.192 0.000
Au 3.265 8.670 2.090
Au 4.743 7.192 4.180
Au 3.265 8.670 6.270
Au 7.699 7.192 0.000
Au 6.221 8.670 2.090
Au 7.699 7.192 4.180
Au 6.221 8.670 6.270
Au 1.787 1.281 8.360
Au 1.787 4.236 8.360
Au 1.787 7.192 8.360
Au 4.743 1.281 8.360
Au 4.743 4.236 8.360
Au 4.743 7.192 8.360
Au 7.699 1.281 8.360
Au 7.699 4.236 8.360
Au 7.699 7.192 8.360
Au 0.309 2.759 10.450
Au 0.309 5.714 10.450
Au 0.309 8.670 10.450
Au 3.265 2.759 10.450
Au 3.265 5.714 10.450
Au 3.265 8.670 10.450
Au 6.221 2.759 10.450
Au 6.221 5.714 10.450
Au 6.221 8.670 10.450
Au 1.740 4.193 12.433
Au 1.740 7.242 12.437
Au 4.790 4.193 12.433
Au 4.789 7.242 12.436
Au 3.264 5.714 14.294
Au 3.267 5.735 16.986
H 3.255 5.724 18.857
H 3.253 5.720 19.736
Au 3.250 5.718 21.615
Au 3.260 5.724 24.266
Au 1.781 4.230 26.268
Au 1.779 7.200 26.269
Au 4.748 4.231 26.267
Au 4.749 7.199 26.268
Au 0.309 2.759 28.270
Au 0.309 5.714 28.270
Au 0.309 8.670 28.270
Au 3.265 2.759 28.270
Au 3.265 5.714 28.270
Au 3.265 8.670 28.270
Au 6.221 2.759 28.270
Au 6.221 5.714 28.270
Au 6.221 8.670 28.270
Au 1.787 1.281 30.360
Au 0.309 2.759 32.450
Au 1.787 1.281 34.540
Au 0.309 2.759 36.630
Au 4.743 1.281 30.360
Au 3.265 2.759 32.450
Au 4.743 1.281 34.540
Au 3.265 2.759 36.630
Au 7.699 1.281 30.360
Au 6.221 2.759 32.450
Au 7.699 1.281 34.540
Au 6.221 2.759 36.630
Au 1.787 4.236 30.360
Au 0.309 5.714 32.450
Au 1.787 4.236 34.540
Au 0.309 5.714 36.630
Au 4.743 4.236 30.360
Au 3.265 5.714 32.450
Au 4.743 4.236 34.540
Au 3.265 5.714 36.630
Au 7.699 4.236 30.360
Au 6.221 5.714 32.450
Au 7.699 4.236 34.540
Au 6.221 5.714 36.630
Au 1.787 7.192 30.360
Au 0.309 8.670 32.450
Au 1.787 7.192 34.540
Au 0.309 8.670 36.630
Au 4.743 7.192 30.360
Au 3.265 8.670 32.450
Au 4.743 7.192 34.540
Au 3.265 8.670 36.630
Au 7.699 7.192 30.360
Au 6.221 8.670 32.450
Au 7.699 7.192 34.540
Au 6.221 8.670 36.630
