  183
 
Au      0.000000    0.000000    0.000000
Au      0.000000    2.955000    0.000000
Au      0.000000    5.911000    0.000000
Au      2.956000    0.000000    0.000000
Au      2.956000    2.955000    0.000000
Au      2.956000    5.911000    0.000000
Au      5.912000    0.000000    0.000000
Au      5.912000    2.955000    0.000000
Au      5.912000    5.911000    0.000000
Au      8.670000    0.000000    0.000000
Au      8.670000    2.955000    0.000000
Au      8.670000    5.911000    0.000000
Au     11.626000    0.000000    0.000000
Au     11.626000    2.955000    0.000000
Au     11.626000    5.911000    0.000000
Au      1.478000    1.478000    2.090000
Au      1.478000    4.433000    2.090000
Au      1.478000    7.389000    2.090000
Au      4.434000    1.478000    2.090000
Au      4.434000    4.433000    2.090000
Au      4.434000    7.389000    2.090000
Au      7.192000    1.478000    2.090000
Au      7.192000    4.433000    2.090000
Au      7.192000    7.389000    2.090000
Au     10.148000    1.478000    2.090000
Au     10.148000    4.433000    2.090000
Au     10.148000    7.389000    2.090000
Au     13.104000    1.478000    2.090000
Au     13.104000    4.433000    2.090000
Au     13.104000    7.389000    2.090000
Au      0.000000    0.000000    4.180000
Au      0.000000    2.955000    4.180000
Au      0.000000    5.911000    4.180000
Au      2.956000    0.000000    4.180000
Au      2.956000    2.955000    4.180000
Au      2.956000    5.911000    4.180000
Au      5.912000    0.000000    4.180000
Au      5.912000    2.955000    4.180000
Au      5.912000    5.911000    4.180000
Au      8.670000    0.000000    4.180000
Au      8.670000    2.955000    4.180000
Au      8.670000    5.911000    4.180000
Au     11.626000    0.000000    4.180000
Au     11.626000    2.955000    4.180000
Au     11.626000    5.911000    4.180000
Au      1.478000    1.478000    6.270000
Au      1.478000    4.433000    6.270000
Au      1.478000    7.389000    6.270000
Au      4.434000    1.478000    6.270000
Au      4.434000    4.433000    6.270000
Au      4.434000    7.389000    6.270000
Au      7.192000    1.478000    6.270000
Au      7.192000    4.433000    6.270000
Au      7.192000    7.389000    6.270000
Au     10.148000    1.478000    6.270000
Au     10.148000    4.433000    6.270000
Au     10.148000    7.389000    6.270000
Au     13.104000    1.478000    6.270000
Au     13.104000    4.433000    6.270000
Au     13.104000    7.389000    6.270000
Au      0.000000    0.000000    8.360000
Au      0.000000    2.955000    8.360000
Au      0.000000    5.911000    8.360000
Au      2.956000    0.000000    8.360000
Au      2.956000    2.955000    8.360000
Au      2.956000    5.911000    8.360000
Au      5.912000    0.000000    8.360000
Au      5.912000    2.955000    8.360000
Au      5.912000    5.911000    8.360000
Au      8.670000    0.000000    8.360000
Au      8.670000    2.955000    8.360000
Au      8.670000    5.911000    8.360000
Au     11.626000    0.000000    8.360000
Au     11.626000    2.955000    8.360000
Au     11.626000    5.911000    8.360000
Au      1.478000    1.478000   10.450000
Au      1.478000    4.433000   10.450000
Au      1.478000    7.389000   10.450000
Au      4.434000    1.478000   10.450000
Au      4.434000    4.433000   10.450000
Au      4.434000    7.389000   10.450000
Au      7.192000    1.478000   10.450000
Au      7.192000    4.433000   10.450000
Au      7.192000    7.389000   10.450000
Au     10.148000    1.478000   10.450000
Au     10.148000    4.433000   10.450000
Au     10.148000    7.389000   10.450000
Au     13.104000    1.478000   10.450000
Au     13.104000    4.433000   10.450000
Au     13.104000    7.389000   10.450000
N       4.855400    5.911900   12.031800
N       9.528000    5.913700   12.034000
N       7.192000    5.934000   12.040000
H       4.075032    5.904949   12.696844
H      10.293988    5.906214   12.716533
C       6.010000    5.912052   12.765820
C       8.375048    5.912963   12.760746
N       5.978850    5.888252   14.094240
N       8.404733    5.889388   14.094061
C       7.194347    5.879916   14.701118
N       7.465300    5.868100   15.993700
H       8.686200    5.870600   15.317800
H       6.761800    5.843800   16.730500
Au      7.312000    5.934000   21.043000
Au      5.813000    7.434000   22.992000
Au      8.813000    4.434000   22.992000
Au      5.813000    4.433000   22.992000
Au      8.813000    7.434000   22.992000
Au      1.478000    1.478000   25.082000
Au      1.478000    4.433000   25.082000
Au      1.478000    7.389000   25.082000
Au      4.434000    1.478000   25.082000
Au      4.434000    4.433000   25.082000
Au      4.434000    7.389000   25.082000
Au      7.192000    1.478000   25.082000
Au      7.192000    4.433000   25.082000
Au      7.192000    7.389000   25.082000
Au     10.148000    1.478000   25.082000
Au     10.148000    4.433000   25.082000
Au     10.148000    7.389000   25.082000
Au     13.104000    1.478000   25.082000
Au     13.104000    4.433000   25.082000
Au     13.104000    7.389000   25.082000
Au      0.000000    0.000000   27.172000
Au      0.000000    2.955000   27.172000
Au      0.000000    5.911000   27.172000
Au      2.956000    0.000000   27.172000
Au      2.956000    2.955000   27.172000
Au      2.956000    5.911000   27.172000
Au      5.912000    0.000000   27.172000
Au      5.912000    2.955000   27.172000
Au      5.912000    5.911000   27.172000
Au      8.670000    0.000000   27.172000
Au      8.670000    2.955000   27.172000
Au      8.670000    5.911000   27.172000
Au     11.626000    0.000000   27.172000
Au     11.626000    2.955000   27.172000
Au     11.626000    5.911000   27.172000
Au      1.478000    1.478000   29.262000
Au      1.478000    4.433000   29.262000
Au      1.478000    7.389000   29.262000
Au      4.434000    1.478000   29.262000
Au      4.434000    4.433000   29.262000
Au      4.434000    7.389000   29.262000
Au      7.192000    1.478000   29.262000
Au      7.192000    4.433000   29.262000
Au      7.192000    7.389000   29.262000
Au     10.148000    1.478000   29.262000
Au     10.148000    4.433000   29.262000
Au     10.148000    7.389000   29.262000
Au     13.104000    1.478000   29.262000
Au     13.104000    4.433000   29.262000
Au     13.104000    7.389000   29.262000
Au      0.000000    0.000000   31.352000
Au      0.000000    2.955000   31.352000
Au      0.000000    5.911000   31.352000
Au      2.956000    0.000000   31.352000
Au      2.956000    2.955000   31.352000
Au      2.956000    5.911000   31.352000
Au      5.912000    0.000000   31.352000
Au      5.912000    2.955000   31.352000
Au      5.912000    5.911000   31.352000
Au      8.670000    0.000000   31.352000
Au      8.670000    2.955000   31.352000
Au      8.670000    5.911000   31.352000
Au     11.626000    0.000000   31.352000
Au     11.626000    2.955000   31.352000
Au     11.626000    5.911000   31.352000
Au      1.478000    1.478000   33.442000
Au      1.478000    4.433000   33.442000
Au      1.478000    7.389000   33.442000
Au      4.434000    1.478000   33.442000
Au      4.434000    4.433000   33.442000
Au      4.434000    7.389000   33.442000
Au      7.192000    1.478000   33.442000
Au      7.192000    4.433000   33.442000
Au      7.192000    7.389000   33.442000
Au     10.148000    1.478000   33.442000
Au     10.148000    4.433000   33.442000
Au     10.148000    7.389000   33.442000
Au     13.104000    1.478000   33.442000
Au     13.104000    4.433000   33.442000
Au     13.104000    7.389000   33.442000
