  183
 
Au      0.000000    0.000000    0.000000
Au      0.000000    2.955000    0.000000
Au      0.000000    5.911000    0.000000
Au      2.956000    0.000000    0.000000
Au      2.956000    2.955000    0.000000
Au      2.956000    5.911000    0.000000
Au      5.912000    0.000000    0.000000
Au      5.912000    2.955000    0.000000
Au      5.912000    5.911000    0.000000
Au      8.670000    0.000000    0.000000
Au      8.670000    2.955000    0.000000
Au      8.670000    5.911000    0.000000
Au     11.626000    0.000000    0.000000
Au     11.626000    2.955000    0.000000
Au     11.626000    5.911000    0.000000
Au      1.478000    1.478000    2.090000
Au      1.478000    4.433000    2.090000
Au      1.478000    7.389000    2.090000
Au      4.434000    1.478000    2.090000
Au      4.434000    4.433000    2.090000
Au      4.434000    7.389000    2.090000
Au      7.192000    1.478000    2.090000
Au      7.192000    4.433000    2.090000
Au      7.192000    7.389000    2.090000
Au     10.148000    1.478000    2.090000
Au     10.148000    4.433000    2.090000
Au     10.148000    7.389000    2.090000
Au     13.104000    1.478000    2.090000
Au     13.104000    4.433000    2.090000
Au     13.104000    7.389000    2.090000
Au      0.000000    0.000000    4.180000
Au      0.000000    2.955000    4.180000
Au      0.000000    5.911000    4.180000
Au      2.956000    0.000000    4.180000
Au      2.956000    2.955000    4.180000
Au      2.956000    5.911000    4.180000
Au      5.912000    0.000000    4.180000
Au      5.912000    2.955000    4.180000
Au      5.912000    5.911000    4.180000
Au      8.670000    0.000000    4.180000
Au      8.670000    2.955000    4.180000
Au      8.670000    5.911000    4.180000
Au     11.626000    0.000000    4.180000
Au     11.626000    2.955000    4.180000
Au     11.626000    5.911000    4.180000
Au      1.478000    1.478000    6.270000
Au      1.478000    4.433000    6.270000
Au      1.478000    7.389000    6.270000
Au      4.434000    1.478000    6.270000
Au      4.434000    4.433000    6.270000
Au      4.434000    7.389000    6.270000
Au      7.192000    1.478000    6.270000
Au      7.192000    4.433000    6.270000
Au      7.192000    7.389000    6.270000
Au     10.148000    1.478000    6.270000
Au     10.148000    4.433000    6.270000
Au     10.148000    7.389000    6.270000
Au     13.104000    1.478000    6.270000
Au     13.104000    4.433000    6.270000
Au     13.104000    7.389000    6.270000
Au      0.000000    0.000000    8.360000
Au      0.000000    2.955000    8.360000
Au      0.000000    5.911000    8.360000
Au      2.956000    0.000000    8.360000
Au      2.956000    2.955000    8.360000
Au      2.956000    5.911000    8.360000
Au      5.912000    0.000000    8.360000
Au      5.912000    2.955000    8.360000
Au      5.912000    5.911000    8.360000
Au      8.670000    0.000000    8.360000
Au      8.670000    2.955000    8.360000
Au      8.670000    5.911000    8.360000
Au     11.626000    0.000000    8.360000
Au     11.626000    2.955000    8.360000
Au     11.626000    5.911000    8.360000
Au      1.478000    1.478000   10.450000
Au      1.478000    4.433000   10.450000
Au      1.478000    7.389000   10.450000
Au      4.434000    1.478000   10.450000
Au      4.434000    4.433000   10.450000
Au      4.434000    7.389000   10.450000
Au      7.192000    1.478000   10.450000
Au      7.192000    4.433000   10.450000
Au      7.192000    7.389000   10.450000
Au     10.148000    1.478000   10.450000
Au     10.148000    4.433000   10.450000
Au     10.148000    7.389000   10.450000
Au     13.104000    1.478000   10.450000
Au     13.104000    4.433000   10.450000
Au     13.104000    7.389000   10.450000
N       4.855000    5.911000   12.032000
N       9.528000    5.913000   12.034000
N       7.192000    5.934000   12.040000
H      10.342200    5.904900   12.650300
H       4.052600    5.903800   12.664900
C       8.382300    5.916500   12.730900
C       5.997200    5.917000   12.747600
N       8.338800    5.901900   14.071500
N       5.915200    5.903600   14.100000
C       7.098800    5.893900   14.719200
H       8.686200    5.870600   15.317800
N       7.465300    5.868100   15.993700
H       6.761800    5.843800   16.730500
Au      7.192000    5.934000   21.043000
Au      5.912000    7.192000   22.992000
Au      8.670000    4.434000   22.992000
Au      5.912000    4.433000   22.992000
Au      8.670000    7.192000   22.992000
Au      1.478000    1.478000   25.082000
Au      1.478000    4.433000   25.082000
Au      1.478000    7.389000   25.082000
Au      4.434000    1.478000   25.082000
Au      4.434000    4.433000   25.082000
Au      4.434000    7.389000   25.082000
Au      7.192000    1.478000   25.082000
Au      7.192000    4.433000   25.082000
Au      7.192000    7.389000   25.082000
Au     10.148000    1.478000   25.082000
Au     10.148000    4.433000   25.082000
Au     10.148000    7.389000   25.082000
Au     13.104000    1.478000   25.082000
Au     13.104000    4.433000   25.082000
Au     13.104000    7.389000   25.082000
Au      0.000000    0.000000   27.172000
Au      0.000000    2.955000   27.172000
Au      0.000000    5.911000   27.172000
Au      2.956000    0.000000   27.172000
Au      2.956000    2.955000   27.172000
Au      2.956000    5.911000   27.172000
Au      5.912000    0.000000   27.172000
Au      5.912000    2.955000   27.172000
Au      5.912000    5.911000   27.172000
Au      8.670000    0.000000   27.172000
Au      8.670000    2.955000   27.172000
Au      8.670000    5.911000   27.172000
Au     11.626000    0.000000   27.172000
Au     11.626000    2.955000   27.172000
Au     11.626000    5.911000   27.172000
Au      1.478000    1.478000   29.262000
Au      1.478000    4.433000   29.262000
Au      1.478000    7.389000   29.262000
Au      4.434000    1.478000   29.262000
Au      4.434000    4.433000   29.262000
Au      4.434000    7.389000   29.262000
Au      7.192000    1.478000   29.262000
Au      7.192000    4.433000   29.262000
Au      7.192000    7.389000   29.262000
Au     10.148000    1.478000   29.262000
Au     10.148000    4.433000   29.262000
Au     10.148000    7.389000   29.262000
Au     13.104000    1.478000   29.262000
Au     13.104000    4.433000   29.262000
Au     13.104000    7.389000   29.262000
Au      0.000000    0.000000   31.352000
Au      0.000000    2.955000   31.352000
Au      0.000000    5.911000   31.352000
Au      2.956000    0.000000   31.352000
Au      2.956000    2.955000   31.352000
Au      2.956000    5.911000   31.352000
Au      5.912000    0.000000   31.352000
Au      5.912000    2.955000   31.352000
Au      5.912000    5.911000   31.352000
Au      8.670000    0.000000   31.352000
Au      8.670000    2.955000   31.352000
Au      8.670000    5.911000   31.352000
Au     11.626000    0.000000   31.352000
Au     11.626000    2.955000   31.352000
Au     11.626000    5.911000   31.352000
Au      1.478000    1.478000   33.442000
Au      1.478000    4.433000   33.442000
Au      1.478000    7.389000   33.442000
Au      4.434000    1.478000   33.442000
Au      4.434000    4.433000   33.442000
Au      4.434000    7.389000   33.442000
Au      7.192000    1.478000   33.442000
Au      7.192000    4.433000   33.442000
Au      7.192000    7.389000   33.442000
Au     10.148000    1.478000   33.442000
Au     10.148000    4.433000   33.442000
Au     10.148000    7.389000   33.442000
Au     13.104000    1.478000   33.442000
Au     13.104000    4.433000   33.442000
Au     13.104000    7.389000   33.442000
