   18
 
Au      1.442986    0.833108    0.000000
Au      2.885971   -1.666214    0.000000
Au      4.328956   -4.165536    0.000000
Au      2.885971    3.332430    0.000000
Au      4.328956    0.833108    0.000000
Au      5.771941   -1.666214    0.000000
Au      4.328956    5.831752    0.000000
Au      5.771941    3.332430    0.000000
Au      7.214926    0.833108    0.000000
Au      1.442986   -0.833108    2.356386
Au      2.885971   -3.332430    2.356386
Au      4.328956   -5.831752    2.356386
Au      2.885971    1.666214    2.356386
Au      4.328956   -0.833108    2.356386
Au      5.771941   -3.332430    2.356386
Au      4.328956    4.165536    2.356386
Au      5.771941    1.666214    2.356386
Au      7.214926   -0.833108    2.356386
