72   
   
Au 0.0 0.0 0.0
Au 8.342575 8.342575 0.0
Au 6.2569315 10.428219 0.0
Au 4.1712875 8.342575 0.0
Au 2.085644 10.428219 0.0
Au 0.0 8.342575 0.0
Au 10.428219 6.2569315 0.0
Au 8.342575 4.1712875 0.0
Au 6.2569315 6.2569315 0.0
Au 4.1712875 4.1712875 0.0
Au 2.085644 6.2569315 0.0
Au 0.0 4.1712875 0.0
Au 10.428219 10.428219 0.0
Au 10.428219 2.085644 0.0
Au 8.342575 0.0 0.0
Au 6.2569315 2.085644 0.0
Au 2.085644 2.085644 0.0
Au 4.1712875 0.0 0.0
Au 0.0 6.2569315 2.085644
Au 10.428219 8.342575 2.085644
Au 8.342575 10.428219 2.085644
Au 0.0 2.085644 2.085644
Au 2.085644 0.0 2.085644
Au 6.2569315 8.342575 2.085644
Au 2.085644 8.342575 2.085644
Au 4.1712875 10.428219 2.085644
Au 4.1712875 2.085644 2.085644
Au 6.2569315 0.0 2.085644
Au 10.428219 4.1712875 2.085644
Au 8.342575 6.2569315 2.085644
Au 6.2569315 4.1712875 2.085644
Au 4.1712875 6.2569315 2.085644
Au 8.342575 2.085644 2.085644
Au 10.428219 0.0 2.085644
Au 0.0 10.428219 2.085644
Au 2.085644 4.1712875 2.085644
Au 4.1712875 4.1712875 4.1712875
Au 6.2569315 6.2569315 4.1712875
Au 8.342575 4.1712875 4.1712875
Au 10.428219 6.2569315 4.1712875
Au 6.2569315 10.428219 4.1712875
Au 2.085644 10.428219 4.1712875
Au 4.1712875 8.342575 4.1712875
Au 8.342575 8.342575 4.1712875
Au 2.085644 6.2569315 4.1712875
Au 0.0 8.342575 4.1712875
Au 0.0 4.1712875 4.1712875
Au 10.428219 10.428219 4.1712875
Au 4.1712875 0.0 4.1712875
Au 0.0 0.0 4.1712875
Au 8.342575 0.0 4.1712875
Au 6.2569315 2.085644 4.1712875
Au 10.428219 2.085644 4.1712875
Au 2.085644 2.085644 4.1712875
Au 8.342575 10.428219 6.2569315
Au 10.428219 8.342575 6.2569315
Au 6.2569315 8.342575 6.2569315
Au 4.1712875 10.428219 6.2569315
Au 0.0 2.085644 6.2569315
Au 2.085644 0.0 6.2569315
Au 2.085644 8.342575 6.2569315
Au 10.428219 0.0 6.2569315
Au 10.428219 4.1712875 6.2569315
Au 8.342575 6.2569315 6.2569315
Au 4.1712875 2.085644 6.2569315
Au 6.2569315 4.1712875 6.2569315
Au 4.1712875 6.2569315 6.2569315
Au 8.342575 2.085644 6.2569315
Au 2.085644 4.1712875 6.2569315
Au 0.0 6.2569315 6.2569315
Au 0.0 10.428219 6.2569315
Au 6.2569315 0.0 6.2569315
