113   
   
Au 1.787 1.281 0.000
Au 0.309 2.759 2.090
Au 1.787 1.281 4.180
Au 0.309 2.759 6.270
Au 4.743 1.281 0.000
Au 3.265 2.759 2.090
Au 4.743 1.281 4.180
Au 3.265 2.759 6.270
Au 7.699 1.281 0.000
Au 6.221 2.759 2.090
Au 7.699 1.281 4.180
Au 6.221 2.759 6.270
Au 1.787 4.236 0.000
Au 0.309 5.714 2.090
Au 1.787 4.236 4.180
Au 0.309 5.714 6.270
Au 4.743 4.236 0.000
Au 3.265 5.714 2.090
Au 4.743 4.236 4.180
Au 3.265 5.714 6.270
Au 7.699 4.236 0.000
Au 6.221 5.714 2.090
Au 7.699 4.236 4.180
Au 6.221 5.714 6.270
Au 1.787 7.192 0.000
Au 0.309 8.670 2.090
Au 1.787 7.192 4.180
Au 0.309 8.670 6.270
Au 4.743 7.192 0.000
Au 3.265 8.670 2.090
Au 4.743 7.192 4.180
Au 3.265 8.670 6.270
Au 7.699 7.192 0.000
Au 6.221 8.670 2.090
Au 7.699 7.192 4.180
Au 6.221 8.670 6.270
Au 1.787 1.281 8.360
Au 1.787 4.236 8.360
Au 1.787 7.192 8.360
Au 4.743 1.281 8.360
Au 4.743 4.236 8.360
Au 4.743 7.192 8.360
Au 7.699 1.281 8.360
Au 7.699 4.236 8.360
Au 7.699 7.192 8.360
Au 0.309 2.759 10.450
Au 0.309 5.714 10.450
Au 0.309 8.670 10.450
Au 3.265 2.759 10.450
Au 3.265 5.714 10.450
Au 3.265 8.670 10.450
Au 6.221 2.759 10.450
Au 6.221 5.714 10.450
Au 6.221 8.670 10.450
Au 1.741 4.194 12.433
Au 1.742 7.241 12.437
Au 4.788 4.194 12.433
Au 4.788 7.241 12.437
Au 3.265 5.712 14.298
Au 3.266 5.753 16.988
H 3.253 5.723 18.860
H 3.252 5.723 19.740
Au 3.247 5.720 21.617
Au 3.260 5.723 24.268
Au 1.780 4.229 26.268
Au 1.779 7.200 26.269
Au 4.749 4.229 26.267
Au 4.750 7.199 26.269
Au 0.309 2.759 28.270
Au 0.309 5.714 28.270
Au 0.309 8.670 28.270
Au 3.265 2.759 28.270
Au 3.265 5.714 28.270
Au 3.265 8.670 28.270
Au 6.221 2.759 28.270
Au 6.221 5.714 28.270
Au 6.221 8.670 28.270
Au 1.787 1.281 30.360
Au 0.309 2.759 32.450
Au 1.787 1.281 34.540
Au 0.309 2.759 36.630
Au 4.743 1.281 30.360
Au 3.265 2.759 32.450
Au 4.743 1.281 34.540
Au 3.265 2.759 36.630
Au 7.699 1.281 30.360
Au 6.221 2.759 32.450
Au 7.699 1.281 34.540
Au 6.221 2.759 36.630
Au 1.787 4.236 30.360
Au 0.309 5.714 32.450
Au 1.787 4.236 34.540
Au 0.309 5.714 36.630
Au 4.743 4.236 30.360
Au 3.265 5.714 32.450
Au 4.743 4.236 34.540
Au 3.265 5.714 36.630
Au 7.699 4.236 30.360
Au 6.221 5.714 32.450
Au 7.699 4.236 34.540
Au 6.221 5.714 36.630
Au 1.787 7.192 30.360
Au 0.309 8.670 32.450
Au 1.787 7.192 34.540
Au 0.309 8.670 36.630
Au 4.743 7.192 30.360
Au 3.265 8.670 32.450
Au 4.743 7.192 34.540
Au 3.265 8.670 36.630
Au 7.699 7.192 30.360
Au 6.221 8.670 32.450
Au 7.699 7.192 34.540
Au 6.221 8.670 36.630
