116   
   
Au 0.000 0.000 0.000
Au 0.000 4.146 0.000
Au 2.073 2.073 0.000
Au 2.073 6.219 0.000
Au 4.146 0.000 0.000
Au 4.146 4.146 0.000
Au 6.219 2.073 0.000
Au 6.219 6.219 0.000
Au 0.000 2.073 2.073
Au 0.000 6.219 2.073
Au 2.073 0.000 2.073
Au 2.073 4.146 2.073
Au 4.146 2.073 2.073
Au 4.146 6.219 2.073
Au 6.219 0.000 2.073
Au 6.219 4.146 2.073
Au 0.000 0.000 4.146
Au 0.000 4.146 4.146
Au 2.073 2.073 4.146
Au 2.073 6.219 4.146
Au 4.146 0.000 4.146
Au 4.146 4.146 4.146
Au 6.219 2.073 4.146
Au 6.219 6.219 4.146
Au 0.000 2.073 6.219
Au 0.000 6.219 6.219
Au 2.073 0.000 6.219
Au 2.073 4.146 6.219
Au 4.146 2.073 6.219
Au 4.146 6.219 6.219
Au 6.219 0.000 6.219
Au 6.219 4.146 6.219
Au 0.000 0.000 8.292
Au 0.000 4.146 8.292
Au 2.073 2.073 8.292
Au 2.073 6.219 8.292
Au 4.146 0.000 8.292
Au 4.146 4.146 8.292
Au 6.219 2.073 8.292
Au 6.219 6.219 8.292
Au 0.000 2.073 10.365
Au 0.000 6.219 10.365
Au 2.073 0.000 10.365
Au 2.073 4.146 10.365
Au 4.146 2.073 10.365
Au 4.146 6.219 10.365
Au 6.219 0.000 10.365
Au 6.219 4.146 10.365
Au 0.000 0.000 12.438
Au 0.000 4.146 12.438
Au 2.073 2.073 12.438
Au 2.073 6.219 12.438
Au 4.146 0.000 12.438
Au 4.146 4.146 12.438
Au 6.219 2.073 12.438
Au 6.219 6.219 12.438
S 4.146 2.073 13.744
C 4.149 2.077 15.505
H 2.047 2.103 15.689
H 6.244 2.103 15.694
C 2.940 2.083 16.206
C 5.348 2.083 16.206
C 2.933 2.061 17.629
C 5.341 2.061 17.629
H 2.037 2.041 18.140
H 6.234 2.041 18.146
C 4.132 2.067 18.329
S 4.146 2.073 20.091
Au 0.000 0.000 21.396
Au 0.000 4.146 21.396
Au 2.073 2.073 21.396
Au 2.073 6.219 21.396
Au 4.146 0.000 21.396
Au 4.146 4.146 21.396
Au 6.219 2.073 21.396
Au 6.219 6.219 21.396
Au 0.000 2.073 23.469
Au 0.000 6.219 23.469
Au 2.073 0.000 23.469
Au 2.073 4.146 23.469
Au 4.146 2.073 23.469
Au 4.146 6.219 23.469
Au 6.219 0.000 23.469
Au 6.219 4.146 23.469
Au 0.000 0.000 25.542
Au 0.000 4.146 25.542
Au 2.073 2.073 25.542
Au 2.073 6.219 25.542
Au 4.146 0.000 25.542
Au 4.146 4.146 25.542
Au 6.219 2.073 25.542
Au 6.219 6.219 25.542
Au 0.000 2.073 27.615
Au 0.000 6.219 27.615
Au 2.073 0.000 27.615
Au 2.073 4.146 27.615
Au 4.146 2.073 27.615
Au 4.146 6.219 27.615
Au 6.219 0.000 27.615
Au 6.219 4.146 27.615
Au 0.000 0.000 29.688
Au 0.000 4.146 29.688
Au 2.073 2.073 29.688
Au 2.073 6.219 29.688
Au 4.146 0.000 29.688
Au 4.146 4.146 29.688
Au 6.219 2.073 29.688
Au 6.219 6.219 29.688
Au 0.000 2.073 31.761
Au 0.000 6.219 31.761
Au 2.073 0.000 31.761
Au 2.073 4.146 31.761
Au 4.146 2.073 31.761
Au 4.146 6.219 31.761
Au 6.219 0.000 31.761
Au 6.219 4.146 31.761
