   12
 
Li     -0.000000   -0.000000    0.003545
Li      0.000000   -0.000000    3.001477
Li      0.000000    0.000000    5.999685
Li      0.000000    0.000000    8.989951
Li      0.000000   -0.000000   12.011766
Li     -0.000000   -0.000000   14.990314
Li      0.000000    0.000000   18.012376
Li     -0.000000    0.000000   20.980910
Li     -0.000000    0.000000   24.012093
Li     -0.000000    0.000000   26.998492
Li     -0.000000   -0.000000   29.998255
Li     -0.000000   -0.000000   33.000386
