12

 S    2.660500    0.379700    1.687600
 C    1.179700    0.167900    0.757400
 C   -0.033000    0.628000    1.252300
 C    1.220300   -0.474600   -0.483000
 S   -2.660500   -0.379700   -1.687600
 C   -1.179700   -0.167900   -0.757400
 C    0.033000   -0.628000   -1.252300
 C   -1.220300    0.474600    0.483000
 H   -0.073470    1.081450    2.178460
 H    2.115940   -0.839690   -0.842930
 H    0.073470   -1.081450   -2.178460
 H   -2.115940    0.839690    0.842930
