    9
 
Au      0.000000    0.000000    0.000000
Au      0.000000    0.000000    2.800000
Au      0.000000    0.000000    5.600000
Au      0.000021   -0.000000    8.399998
Au      0.999963    0.000000   11.200000
Au      0.000021   -0.000000   14.000002
Au      0.000000    0.000000   16.800000
Au      0.000000    0.000000   19.600000
Au      0.000000    0.000000   22.400000
