717
   
Au    0.000000    3.427900    0.000000
Au    0.000000    8.569700    0.000000
Au    0.000000   13.711600    0.000000
Au    1.484300    0.857000    0.000000
Au    1.484300    5.998800    0.000000
Au    1.484300   11.140700    0.000000
Au    2.968600    3.427900    0.000000
Au    2.968600    8.569700    0.000000
Au    2.968600   13.711600    0.000000
Au    4.453000    0.857000    0.000000
Au    4.453000    5.998800    0.000000
Au    4.453000   11.140700    0.000000
Au    5.937300    3.427900    0.000000
Au    5.937300    8.569700    0.000000
Au    5.937300   13.711600    0.000000
Au    7.421600    0.857000    0.000000
Au    7.421600    5.998800    0.000000
Au    7.421600   11.140700    0.000000
Au    8.905900    3.427900    0.000000
Au    8.905900    8.569700    0.000000
Au    8.905900   13.711600    0.000000
Au   10.390300    0.857000    0.000000
Au   10.390300    5.998800    0.000000
Au   10.390300   11.140700    0.000000
Au   11.874600    3.427900    0.000000
Au   11.874600    8.569700    0.000000
Au   11.874600   13.711600    0.000000
Au   13.358900    0.857000    0.000000
Au   13.358900    5.998800    0.000000
Au   13.358900   11.140700    0.000000
Au   14.843200    3.427900    0.000000
Au   14.843200    8.569700    0.000000
Au   14.843200   13.711600    0.000000
Au   16.327600    0.857000    0.000000
Au   16.327600    5.998800    0.000000
Au   16.327600   11.140700    0.000000
Au    0.000000    1.714000    2.423900
Au    0.000000    6.855800    2.423900
Au    0.000000   11.997600    2.423900
Au    1.484300    4.284900    2.423900
Au    1.484300    9.426700    2.423900
Au    1.484300   14.568600    2.423900
Au    2.968600    1.714000    2.423900
Au    2.968600    6.855800    2.423900
Au    2.968600   11.997600    2.423900
Au    4.453000    4.284900    2.423900
Au    4.453000    9.426700    2.423900
Au    4.453000   14.568600    2.423900
Au    5.937300    1.714000    2.423900
Au    5.937300    6.855800    2.423900
Au    5.937300   11.997600    2.423900
Au    7.421600    4.284900    2.423900
Au    7.421600    9.426700    2.423900
Au    7.421600   14.568600    2.423900
Au    8.905900    1.714000    2.423900
Au    8.905900    6.855800    2.423900
Au    8.905900   11.997600    2.423900
Au   10.390300    4.284900    2.423900
Au   10.390300    9.426700    2.423900
Au   10.390300   14.568600    2.423900
Au   11.874600    1.714000    2.423900
Au   11.874600    6.855800    2.423900
Au   11.874600   11.997600    2.423900
Au   13.358900    4.284900    2.423900
Au   13.358900    9.426700    2.423900
Au   13.358900   14.568600    2.423900
Au   14.843200    1.714000    2.423900
Au   14.843200    6.855800    2.423900
Au   14.843200   11.997600    2.423900
Au   16.327600    4.284900    2.423900
Au   16.327600    9.426700    2.423900
Au   16.327600   14.568600    2.423900
Au    0.000000    0.000000    4.847800
Au    0.000000    5.141800    4.847800
Au    0.000000   10.283700    4.847800
Au    1.484300    2.570900    4.847800
Au    1.484300    7.712800    4.847800
Au    1.484300   12.854600    4.847800
Au    2.968600    0.000000    4.847800
Au    2.968600    5.141800    4.847800
Au    2.968600   10.283700    4.847800
Au    4.453000    2.570900    4.847800
Au    4.453000    7.712800    4.847800
Au    4.453000   12.854600    4.847800
Au    5.937300    0.000000    4.847800
Au    5.937300    5.141800    4.847800
Au    5.937300   10.283700    4.847800
Au    7.421600    2.570900    4.847800
Au    7.421600    7.712800    4.847800
Au    7.421600   12.854600    4.847800
Au    8.905900    0.000000    4.847800
Au    8.905900    5.141800    4.847800
Au    8.905900   10.283700    4.847800
Au   10.390300    2.570900    4.847800
Au   10.390300    7.712800    4.847800
Au   10.390300   12.854600    4.847800
Au   11.874600    0.000000    4.847800
Au   11.874600    5.141800    4.847800
Au   11.874600   10.283700    4.847800
Au   13.358900    2.570900    4.847800
Au   13.358900    7.712800    4.847800
Au   13.358900   12.854600    4.847800
Au   14.843200    0.000000    4.847800
Au   14.843200    5.141800    4.847800
Au   14.843200   10.283700    4.847800
Au   16.327600    2.570900    4.847800
Au   16.327600    7.712800    4.847800
Au   16.327600   12.854600    4.847800
Au    0.000000    3.427900    7.271700
Au    0.000000    8.569700    7.271700
Au    0.000000   13.711600    7.271700
Au    1.484300    0.857000    7.271700
Au    1.484300    5.998800    7.271700
Au    1.484300   11.140700    7.271700
Au    2.968600    3.427900    7.271700
Au    2.968600    8.569700    7.271700
Au    2.968600   13.711600    7.271700
Au    4.453000    0.857000    7.271700
Au    4.453000    5.998800    7.271700
Au    4.453000   11.140700    7.271700
Au    5.937300    3.427900    7.271700
Au    5.937300    8.569700    7.271700
Au    5.937300   13.711600    7.271700
Au    7.421600    0.857000    7.271700
Au    7.421600    5.998800    7.271700
Au    7.421600   11.140700    7.271700
Au    8.905900    3.427900    7.271700
Au    8.905900    8.569700    7.271700
Au    8.905900   13.711600    7.271700
Au   10.390300    0.857000    7.271700
Au   10.390300    5.998800    7.271700
Au   10.390300   11.140700    7.271700
Au   11.874600    3.427900    7.271700
Au   11.874600    8.569700    7.271700
Au   11.874600   13.711600    7.271700
Au   13.358900    0.857000    7.271700
Au   13.358900    5.998800    7.271700
Au   13.358900   11.140700    7.271700
Au   14.843200    3.427900    7.271700
Au   14.843200    8.569700    7.271700
Au   14.843200   13.711600    7.271700
Au   16.327600    0.857000    7.271700
Au   16.327600    5.998800    7.271700
Au   16.327600   11.140700    7.271700
Au    6.061900   12.150200    9.468700
Au   16.239300    9.369300    9.472300
Au    0.086100   12.071400    9.513700
Au   13.363600   14.628700    9.531700
Au   11.912200    1.777500    9.549300
Au    0.021900    6.874000    9.559000
Au    5.981800    1.747300    9.563000
Au    4.294700   14.760600    9.563400
Au    7.562700    9.531400    9.567100
Au    3.173900   11.944300    9.574000
Au    4.663900    4.305700    9.574400
Au   14.999000   12.071700    9.581800
Au    8.910400    1.745400    9.584500
Au    1.420300   14.721500    9.585700
Au    9.011000    6.864700    9.592700
Au    4.573300    9.459400    9.598000
Au   11.840700    6.896500    9.606500
Au   10.386200    4.294900    9.649700
Au   16.379900    4.155500    9.651900
Au    1.567600    9.324200    9.656700
Au   13.240300    4.341500    9.662000
Au   10.305800   14.594100    9.664000
Au    7.364400    4.358700    9.664700
Au    3.101500    6.866000    9.665000
Au   10.372700    9.574400    9.674500
Au   11.920800   11.988400    9.674800
Au   14.813800    6.742000    9.680400
Au   13.454900    9.430200    9.681900
Au    1.534800    4.319800    9.698400
Au    0.084200    1.715800    9.701400
Au    3.035600    1.909500    9.714000
Au    8.916900   12.115900    9.723600
Au   15.020800    1.716000    9.751400
Au    7.455700   14.692300    9.752800
Au    6.098900    7.096900    9.754300
Au   16.305099   14.488000    9.781000
Au    1.397500   12.858800   11.864400
Au   17.688499   10.017000   11.891300
Au    5.791400   15.334000   11.910600
Au    4.427900   12.869200   11.911600
Au    8.724500    5.089300   11.932700
Au   13.333900    7.630100   11.960400
Au   17.790501    5.131500   11.962400
Au    7.535300    8.204500   11.967400
Au   10.412000    7.604000   11.987300
Au    2.909500    0.160200   12.001700
Au   11.915900   10.297600   12.012900
Au   11.935500    0.106700   12.024200
Au    1.515000    7.654000   12.025800
Au    7.083500    2.420300   12.036600
Au   16.235399   12.772100   12.045500
Au   11.786000    4.920200   12.046600
Au   14.813600    0.078500   12.049700
Au   16.204100    7.687500   12.066600
Au   10.397900    2.471200   12.072300
Au    3.099000    5.283100   12.078100
Au   14.824300    4.949400   12.092000
Au    0.144400    0.038700   12.105700
Au   13.340500   12.952600   12.112900
Au    4.438300    7.796000   12.118700
Au    5.820600   10.363400   12.123700
Au   10.416400   13.007000   12.139400
Au   16.461100    2.545100   12.148100
Au    4.325500    2.670100   12.160300
Au   14.866100   10.170300   12.164700
Au    2.869100   10.268500   12.167700
Au    1.452100    2.716100   12.168200
Au    7.510200   12.828500   12.169000
Au    8.852300    0.000700   12.204100
Au    5.829600    5.265500   12.211900
Au   13.367800    2.558600   12.302700
Au    9.029100   10.512500   12.304400
 H    3.259400    3.986400   14.194800
Au    9.976700    5.714100   14.210500
 H    4.161600   13.561200   14.239000
Au    7.169500    6.525500   14.247700
 H   12.473100    6.315200   14.273100
 H   11.550300   14.076600   14.323200
 H   13.403200    8.807300   14.418500
Au    8.994700    8.540700   14.465800
 H    3.816100    1.157400   14.484100
 H    7.243500    9.703700   14.695600
 H    7.623600   14.295800   14.759400
 O    7.426600   13.353900   14.803000
 H    6.853800   11.203600   14.831400
 H    7.455100    1.309000   14.843100
 O   13.079700    6.803800   14.861600
 H   11.198500    1.679900   14.901400
 H   13.913400    6.373500   14.946500
 H   13.204600   11.549600   14.978200
 O   13.368300    3.679900   15.034500
 O   13.257100    9.514400   15.077300
 O    3.192600    4.477900   15.077600
 H    8.289300   13.075200   15.090900
 H    6.428000    3.964700   15.104800
 H    3.399400    9.540900   15.125500
 O    3.788100   13.700500   15.176800
 H    4.404600    5.701300   15.186300
 O    4.331600    0.876100   15.260600
 O   11.700400   14.183600   15.271400
 O    8.087500    0.736500   15.281200
 H    8.942000    1.207200   15.302300
 O    6.792000   10.404000   15.314200
 O   13.544000   12.378600   15.359700
 H   12.923900   13.175600   15.360400
 H   13.641300    2.781200   15.368400
 H   14.025300    4.326100   15.393800
 H   12.985700    0.456200   15.435300
 H    4.623100    7.173400   15.442000
 O    6.513500    3.020800   15.477600
 H   10.119900   11.634000   15.484400
 H    3.892800   14.706100   15.515400
 H   11.540900    9.586700   15.539800
 O    5.155700    6.312100   15.568000
 H    5.558400    2.648100   15.572100
 H   14.511000    0.687100   15.673300
 H    5.240000    9.587500   15.707700
 O    9.792900   12.542800   15.710400
 O   10.707600    1.535400   15.726400
 H    3.276700    3.694900   15.727200
 H   11.084800   13.546500   15.779300
 O   13.622300    1.036800   15.867300
 H   10.740200    0.541200   15.896800
 H    3.666000    1.257600   15.915900
 H   13.551000    9.165100   15.970400
 O   10.695900    9.836700   15.977900
 H   11.673700    4.143100   15.984700
 O    4.546600    8.912100   15.984800
 O   10.837400    4.575900   16.261999
 H    4.722900   13.012900   16.626900
 H    7.921100    3.129000   16.688700
 H    9.426500    3.525100   16.700600
 H    9.548000   12.378900   16.725100
 H   10.384800    9.282300   16.786501
 H    6.951000    0.129600   16.790701
 H   11.109500    5.262400   16.879999
Au    8.142800    7.729000   16.911301
 H    5.702400    5.709400   16.955500
 H    4.522300    8.953500   17.010099
 O    3.374400    2.557400   17.086201
 H   14.263200   12.489600   17.116400
 H   12.821600    7.836600   17.170700
 H    6.900700   10.188500   17.240101
 H   13.121400    1.409300   17.267799
 O    8.666300    3.285100   17.285000
 O   13.620800    8.318000   17.365900
 O    5.198600   13.037200   17.471300
 H   10.529800    7.227700   17.474100
 H    5.650500   13.948900   17.523199
 H    4.163700    2.416200   17.591700
 H    6.102100   11.469800   17.596201
 O   11.220700    6.594000   17.659500
 O    6.540300   15.334500   17.676001
 O    6.029700    5.395600   17.862200
 H    8.019700   11.872500   17.933300
 O    6.759600   10.816000   17.949600
 H    6.383700    0.811000   18.013000
 H    6.698000    6.077700   18.038300
 O    8.940600   12.210400   18.104799
 O   14.362700   12.361900   18.131599
 H   13.390000    8.769200   18.205000
 O   12.958500    1.450400   18.236799
 H    5.929700    3.386400   18.258301
 H    9.710600    1.966600   18.289801
 O    5.773300    2.413500   18.501900
 H    8.908600   13.101400   18.542999
 H   11.347300    1.383000   18.559500
 O   10.584700    9.060200   18.605600
 H   11.100200    6.515700   18.629900
 H   13.256100    0.627200   18.637199
 O    4.540300    9.275500   18.698000
 H   13.750600   11.128600   18.711901
 H    7.741800   14.930500   18.743700
 H    8.496100    4.361700   18.744801
 H   14.026400   13.819400   18.803400
 H    5.366700    9.810700   18.874100
 H   13.185700    2.887000   18.874399
 O   10.374700    1.491800   18.893600
 H    5.126800    5.900900   18.982201
 H   11.398300    9.432200   19.033400
 H    9.366900   15.403400   19.059900
 H    4.750800    8.366500   19.066200
 H    4.604100   12.430000   19.105101
 O    8.657400   14.716900   19.176500
 O   13.968900   14.725200   19.197001
 O   13.402900    3.810100   19.225401
 H   10.595200   11.794700   19.278099
 O   13.332400   10.379100   19.300200
 H    9.915800    8.940700   19.333401
 H    5.477100    2.229300   19.427200
 O    4.504600    6.548300   19.514700
 H   12.604000    4.199500   19.577999
Au    7.892000    7.627100   19.612499
 H   12.142400   11.692500   19.742399
 O    8.495900    4.726300   19.748899
 H    8.851500    5.650700   19.780701
 O   11.289400   12.236100   19.810900
 H    7.164000   10.830800   19.983000
 H   13.876100   10.378400   20.119499
 O    4.497900   12.375500   20.121599
 H   13.734300   14.759900   20.136600
 O   11.530900    5.708000   20.271601
 H   10.077400    2.205800   20.334700
 H    4.991500    6.661800   20.351700
 H    5.291700   11.964500   20.517700
 H   12.152800    6.438200   20.598000
 O    4.666000    1.717600   20.683201
 H    8.484500   14.591800   20.696100
 H    9.355500    3.589900   20.757000
 H   10.931200   13.578100   20.903799
 O    6.809600   10.781000   20.934299
 H    4.976600    0.756900   20.967100
 H    4.868500   13.941800   21.083700
 H   14.287000    3.373800   21.091700
 H   10.987200    5.588500   21.122601
 H    7.351200    4.532300   21.130301
 O    9.847500    2.808400   21.140800
 O    5.391500   14.693800   21.469000
 H    5.079000    2.162100   21.509199
 H    7.122700   14.533300   21.531601
 H    7.455900   11.247500   21.541700
 H    5.192500   10.145500   21.559200
 O   10.547800    9.597100   21.634300
 O    8.123500   14.500100   21.638100
 O   13.630500    0.359000   21.650700
 H   10.008100   10.381500   21.663200
 O   11.102400   14.238500   21.671801
 H   13.818600    1.371400   21.702400
 H    9.898100    8.925900   21.815500
 H    3.570400   10.440800   21.882799
 H   13.819700    8.266400   21.977699
 O    6.994200    4.639300   22.020399
 O   14.268200    2.980800   22.063801
 H   12.797000    0.124900   22.083401
 H    7.221000    5.603500   22.236799
 O    4.456600   10.120700   22.263300
 H   10.322300   14.268000   22.277500
 H    8.792200    1.899600   22.328199
 H   13.319300    3.248100   22.332001
Au    7.794200    7.897500   22.368200
 H   10.970800    3.205200   22.387800
 O   13.455000    7.573100   22.487301
 H    5.221500   14.527700   22.500099
 H   12.159400   13.463000   22.541100
 H    4.533100    8.410900   22.550699
 H    8.516100   13.009900   22.557301
 H   14.091900    6.799500   22.565001
 O    4.501600    7.390900   22.584999
 O    8.798200   12.038600   22.593100
 H   11.897300   10.136200   22.766199
 H    8.399200    0.460100   22.783100
 H    3.121000    6.712900   22.871099
 H    5.898600    3.668000   22.889400
 H    9.740000    6.548100   22.904100
 O   10.480500    5.857300   22.924999
 H    5.426900    7.160800   23.047899
 O    8.363400    1.397500   23.095501
 H   13.740000   13.401900   23.150700
 O    5.513000    2.777000   23.151400
 H    6.338300    2.155900   23.205099
 O   12.846400   13.010000   23.242599
 O   11.420000    3.317600   23.264099
 H   12.725000   11.505900   23.378901
 O   12.547100   10.471800   23.402500
 H    3.138500    3.332300   23.412100
 H   11.227200    6.291200   23.415400
 H    8.940200   11.793300   23.534901
 H    4.655800   10.941800   23.645300
 H   11.516700    1.582000   23.794600
 H   10.902900    3.898200   23.857700
 H   12.839200    7.545000   23.870501
 O    4.666200   14.063400   23.912300
 H    3.863300   14.651400   23.949900
 O   11.612500    0.525900   23.950899
 H   14.245200   10.090400   24.205000
 H    4.815500   12.279800   24.423100
 O    4.730400   11.319400   24.637400
 H    8.277800    0.932700   24.688700
 O   12.377600    7.190700   24.730000
 H    5.103000   14.356600   24.741301
 H   12.532600   13.179600   24.845800
 H   11.496200    0.547100   24.882601
 H    4.770900    2.530500   25.029800
 H    8.827500    5.193800   25.035601
Au    7.662000    7.651800   25.080000
 H   11.534500    9.999600   25.086100
 H   11.705200    7.780800   25.166901
 O    9.124800   11.361300   25.193501
 H    8.135900   11.147500   25.313900
 H   10.104500    9.938600   25.424299
 H    9.126500   12.314000   25.497400
 O    8.098600    0.345300   25.514299
 H    3.622300    9.980500   25.514799
 H   12.768800    5.454800   25.580500
 O   14.414500    0.418200   25.589600
 H    7.179400    0.070800   25.661400
 H   13.788100    4.164400   25.676800
 H    5.975300   10.959400   25.691900
 O   10.959600    9.520100   25.718201
 H    9.120300   14.587300   25.780001
 H   14.310200    9.983800   25.810801
 O   12.363200   13.341200   25.826401
 O    8.835900    4.650100   25.893499
 O    4.595400    2.239600   25.966600
 O   12.934800    4.552100   25.982100
 H   10.490800   13.882000   26.019100
 H   12.885700   14.136800   26.021099
 O    3.497900    9.211600   26.100599
 O    5.548600   14.894900   26.165701
 H   13.478400    7.335200   26.166201
 H    6.745000    9.696200   26.177900
 O    9.508300   13.769500   26.188101
 O    6.776600   10.691600   26.246000
 H    5.044500    0.339000   26.246500
 H    3.848100    6.165700   26.329000
 H   11.678600    3.695600   26.361700
 H   12.979800    0.826400   26.383301
 H   10.081500    3.761700   26.394800
 H    7.960900    4.660800   26.401800
 H    5.204800    2.879500   26.412701
 O   10.842800    3.264600   26.761200
 H    5.675200    5.141100   26.863400
 H    4.650300    7.375400   26.866301
 O   12.095400    0.720000   26.880600
 H   11.582100    1.579600   26.899300
 H   13.399200   11.650200   27.011200
 O   13.993600    7.291500   27.038200
 O    6.203700    4.301200   27.041100
 H    5.530500   14.436500   27.041300
 O    4.493800    6.429100   27.083700
 H    8.014300    1.465300   27.139200
 H   14.207800    6.358900   27.180799
 O   13.838100   10.872400   27.267599
 H    7.030500    2.638300   27.362801
 H   11.215300    8.934400   27.498400
 H   11.026800   11.864000   27.602301
 H   12.511400    8.001000   27.773100
 O    7.552700    1.974100   27.809700
 H    4.175400    9.502000   27.889601
 H    9.088800   14.246300   27.910000
 H    6.500900   11.046400   27.928699
Au    7.250500    7.450200   27.943199
 H    6.154100    4.238900   28.010599
 H   12.302000   15.031200   28.114700
 H   10.644400    3.019300   28.158400
 H   13.480300   10.644400   28.167299
 O   11.737600    8.490400   28.214600
 H   14.327800    4.355600   28.454000
 O   11.114000   12.124100   28.574800
 H    5.749400   12.347300   28.588100
 H    3.727600    6.141200   28.598200
 H    4.247900   14.053000   28.799200
 O    5.191600   13.892900   28.809601
 O    6.214600   11.417200   28.835400
 H   12.128800   13.620400   28.845800
 O   12.683400   14.446400   28.872700
 H   10.161000   11.988400   28.875200
 O    4.250800    9.681500   28.878401
 O    8.892700   14.246000   28.892000
 H    4.994500   10.389200   28.912001
 H    8.030800   14.750200   28.976500
 H    7.102100    1.109600   29.102900
 O   10.834300    2.939700   29.264601
 H   11.590300    7.314900   29.315100
 H   12.411300    9.542700   29.334000
 O    3.218800    5.682700   29.355900
 O    5.194200    3.038300   29.430500
 H    8.572000   12.596200   29.502501
 H    5.504100   14.452500   29.504101
 H   14.162000   14.587000   29.532400
 H    3.794800    4.927700   29.548201
 H    4.318200    2.561000   29.552601
 H   12.747100    5.133900   29.568600
 H   10.948500    2.034600   29.608200
 O   13.133400    4.229000   29.641399
 H   12.337100    3.651000   29.650600
 H    7.797200   11.323900   29.652100
 O   11.651200    6.362500   29.719801
 O    6.946400    0.289400   29.722799
 H   10.026000   14.995400   29.804100
 O    8.664500   11.672400   29.900999
 O   12.959700   10.080900   29.903299
 H    5.800300    2.519700   29.949499
 H   11.533300   15.151900   29.960600
 H   10.734300    6.243500   30.007900
 H   14.518900    9.855000   30.072300
 H   12.497600   10.898000   30.256399
Au    5.798500    8.199200   30.293900
 O   10.690400    0.085600   30.317400
Au    7.555300    6.010500   30.341000
Au    8.855000    3.623500   30.573000
 H    7.355400    0.589100   30.592199
Au    8.760000    8.541300   30.622499
Au   10.600300    9.505100   32.315498
Au    4.438100    9.513700   32.392101
Au    5.886100   12.048700   32.477901
Au    8.978700   11.932300   32.512699
Au    1.686000   14.380400   32.526699
Au   16.493999   14.453600   32.536800
Au   15.029400    6.768100   32.560200
Au   13.317800    4.199500   32.578999
Au    8.945500    1.758100   32.610500
Au    6.039700    1.644800   32.612499
Au    4.210000    4.120200   32.634102
Au   16.328300    9.387900   32.658600
Au    3.093900    1.553600   32.665199
Au   16.264299    4.165700   32.675098
Au    0.055800   12.032800   32.691299
Au   14.922800   12.022200   32.695599
Au   12.110700    6.810100   32.702999
Au    0.043100    6.675500   32.709301
Au   10.497500   14.385400   32.709702
Au    7.066200    4.343500   32.710899
Au    3.224800   12.036500   32.713200
Au    1.352000    9.592500   32.716202
Au   12.026000   11.961600   32.724400
Au    0.106200    1.610800   32.729301
Au    7.199300    9.492200   32.738602
Au   10.439300    4.366500   32.738899
Au    7.529000   14.462500   32.739899
Au   14.856100    1.694800   32.750099
Au    4.552600   14.583300   32.753700
Au    5.647800    6.784900   32.756199
Au    9.026400    6.791400   32.768799
Au    1.421800    4.163600   32.772202
Au   13.386400    9.341600   32.801498
Au    2.754500    6.954000   32.850498
Au   13.537100   14.543000   32.859600
Au   11.821200    1.581800   32.935299
Au    7.360100    7.644400   34.964001
Au    0.232800   15.300200   34.966702
Au    7.608900   12.696400   34.976398
Au   11.833800   10.159800   35.000599
Au   14.747100    5.125100   35.001499
Au    3.097800    5.165000   35.022499
Au    7.405300    2.416500   35.048199
Au    2.942400   10.289500   35.066502
Au    1.616000    2.425000   35.077599
Au   13.375300    2.573000   35.084599
Au    8.981200    0.070300   35.095501
Au    8.977200   10.215000   35.097401
Au    4.378000    7.851700   35.098301
Au    1.332800    7.964300   35.100899
Au    4.763300   12.715100   35.114201
Au    3.076200   15.247000   35.120800
Au   11.884000    4.997700   35.124100
Au    8.858900    4.891700   35.125198
Au   16.337601    7.701600   35.125401
Au   16.279800   12.963800   35.136002
Au    5.940300   15.338600   35.136902
Au   10.391100   12.864300   35.138100
Au   14.738800   10.217400   35.143600
Au    5.945300    5.094600   35.145802
Au   13.334800    7.620600   35.147301
Au   16.607500    2.460600   35.147598
Au   10.430500    2.520500   35.148899
Au    0.072300    5.167700   35.155399
Au    5.991700   10.199900   35.155399
Au   15.040200    0.098500   35.159901
Au   10.327200    7.546800   35.166000
Au   13.384200   12.780800   35.179298
Au    1.699800   12.782900   35.200001
Au    4.450000    2.546100   35.206402
Au   11.936100   15.411700   35.208698
Au   17.779100   10.588000   35.212101
Au    0.000000    3.427900   37.498402
Au    0.000000    8.569700   37.498402
Au    0.000000   13.711600   37.498402
Au    1.484300    0.857000   37.498402
Au    1.484300    5.998800   37.498402
Au    1.484300   11.140700   37.498402
Au    2.968600    3.427900   37.498402
Au    2.968600    8.569700   37.498402
Au    2.968600   13.711600   37.498402
Au    4.453000    0.857000   37.498402
Au    4.453000    5.998800   37.498402
Au    4.453000   11.140700   37.498402
Au    5.937300    3.427900   37.498402
Au    5.937300    8.569700   37.498402
Au    5.937300   13.711600   37.498402
Au    7.421600    0.857000   37.498402
Au    7.421600    5.998800   37.498402
Au    7.421600   11.140700   37.498402
Au    8.905900    3.427900   37.498402
Au    8.905900    8.569700   37.498402
Au    8.905900   13.711600   37.498402
Au   10.390300    0.857000   37.498402
Au   10.390300    5.998800   37.498402
Au   10.390300   11.140700   37.498402
Au   11.874600    3.427900   37.498402
Au   11.874600    8.569700   37.498402
Au   11.874600   13.711600   37.498402
Au   13.358900    0.857000   37.498402
Au   13.358900    5.998800   37.498402
Au   13.358900   11.140700   37.498402
Au   14.843200    3.427900   37.498402
Au   14.843200    8.569700   37.498402
Au   14.843200   13.711600   37.498402
Au   16.327600    0.857000   37.498402
Au   16.327600    5.998800   37.498402
Au   16.327600   11.140700   37.498402
Au    0.000000    1.714000   39.922298
Au    0.000000    6.855800   39.922298
Au    0.000000   11.997600   39.922298
Au    1.484300    4.284900   39.922298
Au    1.484300    9.426700   39.922298
Au    1.484300   14.568600   39.922298
Au    2.968600    1.714000   39.922298
Au    2.968600    6.855800   39.922298
Au    2.968600   11.997600   39.922298
Au    4.453000    4.284900   39.922298
Au    4.453000    9.426700   39.922298
Au    4.453000   14.568600   39.922298
Au    5.937300    1.714000   39.922298
Au    5.937300    6.855800   39.922298
Au    5.937300   11.997600   39.922298
Au    7.421600    4.284900   39.922298
Au    7.421600    9.426700   39.922298
Au    7.421600   14.568600   39.922298
Au    8.905900    1.714000   39.922298
Au    8.905900    6.855800   39.922298
Au    8.905900   11.997600   39.922298
Au   10.390300    4.284900   39.922298
Au   10.390300    9.426700   39.922298
Au   10.390300   14.568600   39.922298
Au   11.874600    1.714000   39.922298
Au   11.874600    6.855800   39.922298
Au   11.874600   11.997600   39.922298
Au   13.358900    4.284900   39.922298
Au   13.358900    9.426700   39.922298
Au   13.358900   14.568600   39.922298
Au   14.843200    1.714000   39.922298
Au   14.843200    6.855800   39.922298
Au   14.843200   11.997600   39.922298
Au   16.327600    4.284900   39.922298
Au   16.327600    9.426700   39.922298
Au   16.327600   14.568600   39.922298
Au    0.000000    0.000000   42.346199
Au    0.000000    5.141800   42.346199
Au    0.000000   10.283700   42.346199
Au    1.484300    2.570900   42.346199
Au    1.484300    7.712800   42.346199
Au    1.484300   12.854600   42.346199
Au    2.968600    0.000000   42.346199
Au    2.968600    5.141800   42.346199
Au    2.968600   10.283700   42.346199
Au    4.453000    2.570900   42.346199
Au    4.453000    7.712800   42.346199
Au    4.453000   12.854600   42.346199
Au    5.937300    0.000000   42.346199
Au    5.937300    5.141800   42.346199
Au    5.937300   10.283700   42.346199
Au    7.421600    2.570900   42.346199
Au    7.421600    7.712800   42.346199
Au    7.421600   12.854600   42.346199
Au    8.905900    0.000000   42.346199
Au    8.905900    5.141800   42.346199
Au    8.905900   10.283700   42.346199
Au   10.390300    2.570900   42.346199
Au   10.390300    7.712800   42.346199
Au   10.390300   12.854600   42.346199
Au   11.874600    0.000000   42.346199
Au   11.874600    5.141800   42.346199
Au   11.874600   10.283700   42.346199
Au   13.358900    2.570900   42.346199
Au   13.358900    7.712800   42.346199
Au   13.358900   12.854600   42.346199
Au   14.843200    0.000000   42.346199
Au   14.843200    5.141800   42.346199
Au   14.843200   10.283700   42.346199
Au   16.327600    2.570900   42.346199
Au   16.327600    7.712800   42.346199
Au   16.327600   12.854600   42.346199
