72   
   
Au 0.000 0.000 0.000
Au 2.073 2.073 0.000
Au 2.073 0.000 2.073
Au 0.000 2.073 2.073
Au 0.000 4.146 0.000
Au 2.073 6.219 0.000
Au 2.073 4.146 2.073
Au 0.000 6.219 2.073
Au 0.000 8.292 0.000
Au 2.073 10.365 0.000
Au 2.073 8.292 2.073
Au 0.000 10.365 2.073
Au 4.146 0.000 0.000
Au 6.219 2.073 0.000
Au 6.219 0.000 2.073
Au 4.146 2.073 2.073
Au 4.146 4.146 0.000
Au 6.219 6.219 0.000
Au 6.219 4.146 2.073
Au 4.146 6.219 2.073
Au 4.146 8.292 0.000
Au 6.219 10.365 0.000
Au 6.219 8.292 2.073
Au 4.146 10.365 2.073
Au 8.292 0.000 0.000
Au 10.365 2.073 0.000
Au 10.365 0.000 2.073
Au 8.292 2.073 2.073
Au 8.292 4.146 0.000
Au 10.365 6.219 0.000
Au 10.365 4.146 2.073
Au 8.292 6.219 2.073
Au 8.292 8.292 0.000
Au 10.365 10.365 0.000
Au 10.365 8.292 2.073
Au 8.292 10.365 2.073
Au 0.000 0.000 4.146
Au 2.073 2.073 4.146
Au 2.073 0.000 6.219
Au 0.000 2.073 6.219
Au 0.000 4.146 4.146
Au 2.073 6.219 4.146
Au 2.073 4.146 6.219
Au 0.000 6.219 6.219
Au 0.000 8.292 4.146
Au 2.073 10.365 4.146
Au 2.073 8.292 6.219
Au 0.000 10.365 6.219
Au 4.146 0.000 4.146
Au 6.219 2.073 4.146
Au 6.219 0.000 6.219
Au 4.146 2.073 6.219
Au 4.146 4.146 4.146
Au 6.219 6.219 4.146
Au 6.219 4.146 6.219
Au 4.146 6.219 6.219
Au 4.146 8.292 4.146
Au 6.219 10.365 4.146
Au 6.219 8.292 6.219
Au 4.146 10.365 6.219
Au 8.292 0.000 4.146
Au 10.365 2.073 4.146
Au 10.365 0.000 6.219
Au 8.292 2.073 6.219
Au 8.292 4.146 4.146
Au 10.365 6.219 4.146
Au 10.365 4.146 6.219
Au 8.292 6.219 6.219
Au 8.292 8.292 4.146
Au 10.365 10.365 4.146
Au 10.365 8.292 6.219
Au 8.292 10.365 6.219
