   96
 
Au      0.000000    0.000000    0.000000
Au      0.000000    4.168000    0.000000
Au      2.084000    2.084000    0.000000
Au      2.084000    6.252000    0.000000
Au      4.168000    0.000000    0.000000
Au      4.168000    4.168000    0.000000
Au      6.252000    2.084000    0.000000
Au      6.252000    6.252000    0.000000
Au      0.000000    2.084000    2.084000
Au      0.000000    6.252000    2.084000
Au      2.084000    0.000000    2.084000
Au      2.084000    4.168000    2.084000
Au      4.168000    2.084000    2.084000
Au      4.168000    6.252000    2.084000
Au      6.252000    0.000000    2.084000
Au      6.252000    4.168000    2.084000
Au      0.000000    0.000000    4.168000
Au      0.000000    4.168000    4.168000
Au      2.084000    2.084000    4.168000
Au      2.084000    6.252000    4.168000
Au      4.168000    0.000000    4.168000
Au      4.168000    4.168000    4.168000
Au      6.252000    2.084000    4.168000
Au      6.252000    6.252000    4.168000
Au      0.000000    2.084000    6.252000
Au      0.000000    6.252000    6.252000
Au      2.084000    0.000000    6.252000
Au      2.084000    4.168000    6.252000
Au      4.168000    2.084000    6.252000
Au      4.168000    6.252000    6.252000
Au      6.252000    0.000000    6.252000
Au      6.252000    4.168000    6.252000
Au      0.000000    0.000000    8.336000
Au      0.000000    4.168000    8.336000
Au      2.084000    2.084000    8.336000
Au      2.084000    6.252000    8.336000
Au      4.168000    0.000000    8.336000
Au      4.168000    4.168000    8.336000
Au      6.252000    2.084000    8.336000
Au      6.252000    6.252000    8.336000
Au      0.000000    2.084000   10.420000
Au      0.000000    6.252000   10.420000
Au      2.084000    0.000000   10.420000
Au      2.084000    4.168000   10.420000
Au      4.168000    2.084000   10.420000
Au      4.168000    6.252000   10.420000
Au      6.252000    0.000000   10.420000
Au      6.252000    4.168000   10.420000
Au      0.000000    0.000000   21.422000
Au      0.000000    4.168000   21.422000
Au      2.084000    2.084000   21.422000
Au      2.084000    6.252000   21.422000
Au      4.168000    0.000000   21.422000
Au      4.168000    4.168000   21.422000
Au      6.252000    2.084000   21.422000
Au      6.252000    6.252000   21.422000
Au      0.000000    2.084000   23.506000
Au      0.000000    6.252000   23.506000
Au      2.084000    0.000000   23.506000
Au      2.084000    4.168000   23.506000
Au      4.168000    2.084000   23.506000
Au      4.168000    6.252000   23.506000
Au      6.252000    0.000000   23.506000
Au      6.252000    4.168000   23.506000
Au      0.000000    0.000000   25.590000
Au      0.000000    4.168000   25.590000
Au      2.084000    2.084000   25.590000
Au      2.084000    6.252000   25.590000
Au      4.168000    0.000000   25.590000
Au      4.168000    4.168000   25.590000
Au      6.252000    2.084000   25.590000
Au      6.252000    6.252000   25.590000
Au      0.000000    2.084000   27.674000
Au      0.000000    6.252000   27.674000
Au      2.084000    0.000000   27.674000
Au      2.084000    4.168000   27.674000
Au      4.168000    2.084000   27.674000
Au      4.168000    6.252000   27.674000
Au      6.252000    0.000000   27.674000
Au      6.252000    4.168000   27.674000
Au      0.000000    0.000000   29.758000
Au      0.000000    4.168000   29.758000
Au      2.084000    2.084000   29.758000
Au      2.084000    6.252000   29.758000
Au      4.168000    0.000000   29.758000
Au      4.168000    4.168000   29.758000
Au      6.252000    2.084000   29.758000
Au      6.252000    6.252000   29.758000
Au      0.000000    2.084000   31.842000
Au      0.000000    6.252000   31.842000
Au      2.084000    0.000000   31.842000
Au      2.084000    4.168000   31.842000
Au      4.168000    2.084000   31.842000
Au      4.168000    6.252000   31.842000
Au      6.252000    0.000000   31.842000
Au      6.252000    4.168000   31.842000
