300

 S    8.342580   10.428220   15.974900
 C    8.328600   10.422150   14.213400
 C    7.130030   10.416190   13.512930
 C    9.537880   10.416190   13.512930
 S    8.342580   10.428220    9.628120
 C    8.345980   10.432070   11.389620
 C    9.544550   10.438040   12.090080
 C    7.136700   10.438040   12.090080
 H    6.233850   10.395890   14.024290
 H   10.430640   10.395830   14.030210
 H   10.440730   10.458330   11.578730
 H    6.243940   10.458400   11.572810
 Au    0.000000    0.000000    8.342576
 Au    2.085644    2.085644    8.342576
 Au    4.171288    0.000000    8.342576
 Au   12.513864    0.000000    8.342576
 Au    0.000000    4.171288    8.342576
 Au    0.000000   12.513864    8.342576
 Au    6.256932    2.085644    8.342576
 Au   14.599508    2.085644    8.342576
 Au    2.085644    6.256932    8.342576
 Au    2.085644   14.599508    8.342576
 Au    4.171288    4.171288    8.342576
 Au   12.513864   12.513864    8.342576
 Au   12.513864    4.171288    8.342576
 Au    4.171288   12.513864    8.342576
 Au    6.256932    6.256932    8.342576
 Au   14.599508   14.599508    8.342576
 Au   14.599508    6.256932    8.342576
 Au    6.256932   14.599508    8.342576
 Au    0.000000    8.342576    8.342576
 Au    8.342576    0.000000    8.342576
 Au    2.085644   10.428220    8.342576
 Au   10.428220    2.085644    8.342576
 Au    8.342576    4.171288    8.342576
 Au    8.342576   12.513864    8.342576
 Au    4.171288    8.342576    8.342576
 Au   12.513864    8.342576    8.342576
 Au   10.428220    6.256932    8.342576
 Au   10.428220   14.599508    8.342576
 Au    6.256932   10.428220    8.342576
 Au   14.599508   10.428220    8.342576
 Au    8.342576    8.342576    8.342576
 Au   10.428220   10.428220    8.342576
 Au    0.000000    0.000000   17.260401
 Au    2.085644    2.085644   17.260401
 Au    4.171288    0.000000   17.260401
 Au   12.513864    0.000000   17.260401
 Au    0.000000    4.171288   17.260401
 Au    0.000000   12.513864   17.260401
 Au    6.256932    2.085644   17.260401
 Au   14.599508    2.085644   17.260401
 Au    2.085644    6.256932   17.260401
 Au    2.085644   14.599508   17.260401
 Au    4.171288    4.171288   17.260401
 Au   12.513864   12.513864   17.260401
 Au   12.513864    4.171288   17.260401
 Au    4.171288   12.513864   17.260401
 Au    6.256932    6.256932   17.260401
 Au   14.599508   14.599508   17.260401
 Au   14.599508    6.256932   17.260401
 Au    6.256932   14.599508   17.260401
 Au    0.000000    8.342576   17.260401
 Au    8.342576    0.000000   17.260401
 Au    2.085644   10.428220   17.260401
 Au   10.428220    2.085644   17.260401
 Au    8.342576    4.171288   17.260401
 Au    8.342576   12.513864   17.260401
 Au    4.171288    8.342576   17.260401
 Au   12.513864    8.342576   17.260401
 Au   10.428220    6.256932   17.260401
 Au   10.428220   14.599508   17.260401
 Au    6.256932   10.428220   17.260401
 Au   14.599508   10.428220   17.260401
 Au    8.342576    8.342576   17.260401
 Au   10.428220   10.428220   17.260401
 Au    0.000000    2.085644    6.256932
 Au    2.085644    0.000000    6.256932
 Au    0.000000    6.256932    6.256932
 Au    0.000000   14.599508    6.256932
 Au    4.171288    2.085644    6.256932
 Au   12.513864    2.085644    6.256932
 Au    2.085644    4.171288    6.256932
 Au    2.085644   12.513864    6.256932
 Au    6.256932    0.000000    6.256932
 Au   14.599508    0.000000    6.256932
 Au    0.000000   10.428220    6.256932
 Au    8.342576    2.085644    6.256932
 Au    2.085644    8.342576    6.256932
 Au   10.428220    0.000000    6.256932
 Au    4.171288    6.256932    6.256932
 Au   12.513864   14.599508    6.256932
 Au   12.513864    6.256932    6.256932
 Au    4.171288   14.599508    6.256932
 Au    6.256932    4.171288    6.256932
 Au   14.599508   12.513864    6.256932
 Au   14.599508    4.171288    6.256932
 Au    6.256932   12.513864    6.256932
 Au    4.171288   10.428220    6.256932
 Au   12.513864   10.428220    6.256932
 Au    8.342576    6.256932    6.256932
 Au    8.342576   14.599508    6.256932
 Au    6.256932    8.342576    6.256932
 Au   14.599508    8.342576    6.256932
 Au   10.428220    4.171288    6.256932
 Au   10.428220   12.513864    6.256932
 Au    8.342576   10.428220    6.256932
 Au   10.428220    8.342576    6.256932
 Au    0.000000    2.085644   19.346045
 Au    2.085644    0.000000   19.346045
 Au    4.171288    2.085644   19.346045
 Au   12.513864    2.085644   19.346045
 Au    0.000000    6.256932   19.346045
 Au    0.000000   14.599508   19.346045
 Au    6.256932    0.000000   19.346045
 Au   14.599508    0.000000   19.346045
 Au    2.085644    4.171288   19.346045
 Au    2.085644   12.513864   19.346045
 Au    4.171288    6.256932   19.346045
 Au   12.513864   14.599508   19.346045
 Au   12.513864    6.256932   19.346045
 Au    4.171288   14.599508   19.346045
 Au    6.256932    4.171288   19.346045
 Au   14.599508   12.513864   19.346045
 Au   14.599508    4.171288   19.346045
 Au    6.256932   12.513864   19.346045
 Au    0.000000   10.428220   19.346045
 Au    8.342576    2.085644   19.346045
 Au    2.085644    8.342576   19.346045
 Au   10.428220    0.000000   19.346045
 Au    8.342576    6.256932   19.346045
 Au    8.342576   14.599508   19.346045
 Au    4.171288   10.428220   19.346045
 Au   12.513864   10.428220   19.346045
 Au   10.428220    4.171288   19.346045
 Au   10.428220   12.513864   19.346045
 Au    6.256932    8.342576   19.346045
 Au   14.599508    8.342576   19.346045
 Au    8.342576   10.428220   19.346045
 Au   10.428220    8.342576   19.346045
 Au    0.000000    0.000000    0.000000
 Au    0.000000    2.085644    2.085644
 Au    2.085644    0.000000    2.085644
 Au    2.085644    2.085644    0.000000
 Au    0.000000    0.000000    4.171288
 Au    4.171288    0.000000    0.000000
 Au   12.513864    0.000000    0.000000
 Au    0.000000    4.171288    0.000000
 Au    0.000000   12.513864    0.000000
 Au    4.171288    2.085644    2.085644
 Au   12.513864    2.085644    2.085644
 Au    0.000000    6.256932    2.085644
 Au    0.000000   14.599508    2.085644
 Au    6.256932    0.000000    2.085644
 Au   14.599508    0.000000    2.085644
 Au    2.085644    4.171288    2.085644
 Au    2.085644   12.513864    2.085644
 Au    2.085644    2.085644    4.171288
 Au    6.256932    2.085644    0.000000
 Au   14.599508    2.085644    0.000000
 Au    2.085644    6.256932    0.000000
 Au    2.085644   14.599508    0.000000
 Au    0.000000    4.171288    4.171288
 Au    0.000000   12.513864    4.171288
 Au    4.171288    0.000000    4.171288
 Au   12.513864    0.000000    4.171288
 Au    4.171288    4.171288    0.000000
 Au   12.513864   12.513864    0.000000
 Au   12.513864    4.171288    0.000000
 Au    4.171288   12.513864    0.000000
 Au    4.171288    6.256932    2.085644
 Au   12.513864   14.599508    2.085644
 Au   12.513864    6.256932    2.085644
 Au    4.171288   14.599508    2.085644
 Au    6.256932    4.171288    2.085644
 Au   14.599508   12.513864    2.085644
 Au   14.599508    4.171288    2.085644
 Au    6.256932   12.513864    2.085644
 Au    2.085644    6.256932    4.171288
 Au    2.085644   14.599508    4.171288
 Au    6.256932    2.085644    4.171288
 Au   14.599508    2.085644    4.171288
 Au    6.256932    6.256932    0.000000
 Au   14.599508   14.599508    0.000000
 Au   14.599508    6.256932    0.000000
 Au    6.256932   14.599508    0.000000
 Au    0.000000    8.342576    0.000000
 Au    8.342576    0.000000    0.000000
 Au    0.000000   10.428220    2.085644
 Au    8.342576    2.085644    2.085644
 Au    2.085644    8.342576    2.085644
 Au   10.428220    0.000000    2.085644
 Au    2.085644   10.428220    0.000000
 Au   10.428220    2.085644    0.000000
 Au    0.000000    8.342576    4.171288
 Au    8.342576    4.171288    0.000000
 Au    8.342576   12.513864    0.000000
 Au    8.342576    0.000000    4.171288
 Au    4.171288    8.342576    0.000000
 Au   12.513864    8.342576    0.000000
 Au    8.342576    6.256932    2.085644
 Au    8.342576   14.599508    2.085644
 Au    4.171288   10.428220    2.085644
 Au   12.513864   10.428220    2.085644
 Au   10.428220    4.171288    2.085644
 Au   10.428220   12.513864    2.085644
 Au    6.256932    8.342576    2.085644
 Au   14.599508    8.342576    2.085644
 Au    2.085644   10.428220    4.171288
 Au   10.428220    6.256932    0.000000
 Au   10.428220   14.599508    0.000000
 Au   10.428220    2.085644    4.171288
 Au    6.256932   10.428220    0.000000
 Au   14.599508   10.428220    0.000000
 Au    4.171288    4.171288    4.171288
 Au   12.513864   12.513864    4.171288
 Au   12.513864    4.171288    4.171288
 Au    4.171288   12.513864    4.171288
 Au    6.256932    6.256932    4.171288
 Au   14.599508   14.599508    4.171288
 Au   14.599508    6.256932    4.171288
 Au    6.256932   14.599508    4.171288
 Au    4.171288    8.342576    4.171288
 Au   12.513864    8.342576    4.171288
 Au    8.342576    4.171288    4.171288
 Au    8.342576   12.513864    4.171288
 Au    6.256932   10.428220    4.171288
 Au   14.599508   10.428220    4.171288
 Au   10.428220    6.256932    4.171288
 Au   10.428220   14.599508    4.171288
 Au    8.342576    8.342576    0.000000
 Au    8.342576   10.428220    2.085644
 Au   10.428220    8.342576    2.085644
 Au   10.428220   10.428220    0.000000
 Au    8.342576    8.342576    4.171288
 Au   10.428220   10.428220    4.171288
 Au    0.000000    0.000000   21.431688
 Au    0.000000    2.085644   23.517332
 Au    2.085644    0.000000   23.517332
 Au    2.085644    2.085644   21.431688
 Au    0.000000    4.171288   21.431688
 Au    0.000000   12.513864   21.431688
 Au    4.171288    0.000000   21.431688
 Au   12.513864    0.000000   21.431688
 Au    0.000000    6.256932   23.517332
 Au    0.000000   14.599508   23.517332
 Au    4.171288    2.085644   23.517332
 Au   12.513864    2.085644   23.517332
 Au    2.085644    4.171288   23.517332
 Au    2.085644   12.513864   23.517332
 Au    6.256932    0.000000   23.517332
 Au   14.599508    0.000000   23.517332
 Au    2.085644    6.256932   21.431688
 Au    2.085644   14.599508   21.431688
 Au    6.256932    2.085644   21.431688
 Au   14.599508    2.085644   21.431688
 Au    0.000000    8.342576   21.431688
 Au    8.342576    0.000000   21.431688
 Au    0.000000   10.428220   23.517332
 Au    8.342576    2.085644   23.517332
 Au    2.085644    8.342576   23.517332
 Au   10.428220    0.000000   23.517332
 Au    2.085644   10.428220   21.431688
 Au   10.428220    2.085644   21.431688
 Au    4.171288    4.171288   21.431688
 Au   12.513864   12.513864   21.431688
 Au   12.513864    4.171288   21.431688
 Au    4.171288   12.513864   21.431688
 Au    4.171288    6.256932   23.517332
 Au   12.513864   14.599508   23.517332
 Au   12.513864    6.256932   23.517332
 Au    4.171288   14.599508   23.517332
 Au    6.256932    4.171288   23.517332
 Au   14.599508   12.513864   23.517332
 Au   14.599508    4.171288   23.517332
 Au    6.256932   12.513864   23.517332
 Au    6.256932    6.256932   21.431688
 Au   14.599508   14.599508   21.431688
 Au   14.599508    6.256932   21.431688
 Au    6.256932   14.599508   21.431688
 Au    4.171288    8.342576   21.431688
 Au   12.513864    8.342576   21.431688
 Au    8.342576    4.171288   21.431688
 Au    8.342576   12.513864   21.431688
 Au    4.171288   10.428220   23.517332
 Au   12.513864   10.428220   23.517332
 Au    8.342576    6.256932   23.517332
 Au    8.342576   14.599508   23.517332
 Au    6.256932    8.342576   23.517332
 Au   14.599508    8.342576   23.517332
 Au   10.428220    4.171288   23.517332
 Au   10.428220   12.513864   23.517332
 Au    6.256932   10.428220   21.431688
 Au   14.599508   10.428220   21.431688
 Au   10.428220    6.256932   21.431688
 Au   10.428220   14.599508   21.431688
 Au    8.342576    8.342576   21.431688
 Au    8.342576   10.428220   23.517332
 Au   10.428220    8.342576   23.517332
 Au   10.428220   10.428220   21.431688
