113   
   
Au 1.787 1.281 0.000
Au 0.309 2.759 2.090
Au 1.787 1.281 4.180
Au 0.309 2.759 6.270
Au 4.743 1.281 0.000
Au 3.265 2.759 2.090
Au 4.743 1.281 4.180
Au 3.265 2.759 6.270
Au 7.699 1.281 0.000
Au 6.221 2.759 2.090
Au 7.699 1.281 4.180
Au 6.221 2.759 6.270
Au 1.787 4.236 0.000
Au 0.309 5.714 2.090
Au 1.787 4.236 4.180
Au 0.309 5.714 6.270
Au 4.743 4.236 0.000
Au 3.265 5.714 2.090
Au 4.743 4.236 4.180
Au 3.265 5.714 6.270
Au 7.699 4.236 0.000
Au 6.221 5.714 2.090
Au 7.699 4.236 4.180
Au 6.221 5.714 6.270
Au 1.787 7.192 0.000
Au 0.309 8.670 2.090
Au 1.787 7.192 4.180
Au 0.309 8.670 6.270
Au 4.743 7.192 0.000
Au 3.265 8.670 2.090
Au 4.743 7.192 4.180
Au 3.265 8.670 6.270
Au 7.699 7.192 0.000
Au 6.221 8.670 2.090
Au 7.699 7.192 4.180
Au 6.221 8.670 6.270
Au 1.787 1.281 8.360
Au 1.787 4.236 8.360
Au 1.787 7.192 8.360
Au 4.743 1.281 8.360
Au 4.743 4.236 8.360
Au 4.743 7.192 8.360
Au 7.699 1.281 8.360
Au 7.699 4.236 8.360
Au 7.699 7.192 8.360
Au 0.309 2.759 10.450
Au 0.309 5.714 10.450
Au 0.309 8.670 10.450
Au 3.265 2.759 10.450
Au 3.265 5.714 10.450
Au 3.265 8.670 10.450
Au 6.221 2.759 10.450
Au 6.221 5.714 10.450
Au 6.221 8.670 10.450
Au 1.764 4.212 12.440
Au 1.763 7.216 12.440
Au 4.767 4.212 12.440
Au 4.768 7.216 12.440
Au 3.266 5.715 14.378
Au 3.267 5.746 17.037
H 3.253 5.719 18.914
H 3.258 5.726 19.783
Au 3.238 5.714 21.662
Au 3.264 5.714 24.314
Au 1.770 4.218 26.276
Au 1.770 7.210 26.276
Au 4.761 4.218 26.275
Au 4.761 7.209 26.276
Au 0.309 2.759 28.270
Au 0.309 5.714 28.270
Au 0.309 8.670 28.270
Au 3.265 2.759 28.270
Au 3.265 5.714 28.270
Au 3.265 8.670 28.270
Au 6.221 2.759 28.270
Au 6.221 5.714 28.270
Au 6.221 8.670 28.270
Au 1.787 1.281 30.360
Au 0.309 2.759 32.450
Au 1.787 1.281 34.540
Au 0.309 2.759 36.630
Au 4.743 1.281 30.360
Au 3.265 2.759 32.450
Au 4.743 1.281 34.540
Au 3.265 2.759 36.630
Au 7.699 1.281 30.360
Au 6.221 2.759 32.450
Au 7.699 1.281 34.540
Au 6.221 2.759 36.630
Au 1.787 4.236 30.360
Au 0.309 5.714 32.450
Au 1.787 4.236 34.540
Au 0.309 5.714 36.630
Au 4.743 4.236 30.360
Au 3.265 5.714 32.450
Au 4.743 4.236 34.540
Au 3.265 5.714 36.630
Au 7.699 4.236 30.360
Au 6.221 5.714 32.450
Au 7.699 4.236 34.540
Au 6.221 5.714 36.630
Au 1.787 7.192 30.360
Au 0.309 8.670 32.450
Au 1.787 7.192 34.540
Au 0.309 8.670 36.630
Au 4.743 7.192 30.360
Au 3.265 8.670 32.450
Au 4.743 7.192 34.540
Au 3.265 8.670 36.630
Au 7.699 7.192 30.360
Au 6.221 8.670 32.450
Au 7.699 7.192 34.540
Au 6.221 8.670 36.630
