116   
   
Au 0.000 0.000 0.000
Au 0.000 4.146 0.000
Au 2.073 2.073 0.000
Au 2.073 6.219 0.000
Au 4.146 0.000 0.000
Au 4.146 4.146 0.000
Au 6.219 2.073 0.000
Au 6.219 6.219 0.000
Au 0.000 2.073 2.073
Au 0.000 6.219 2.073
Au 2.073 0.000 2.073
Au 2.073 4.146 2.073
Au 4.146 2.073 2.073
Au 4.146 6.219 2.073
Au 6.219 0.000 2.073
Au 6.219 4.146 2.073
Au 0.000 0.000 4.146
Au 0.000 4.146 4.146
Au 2.073 2.073 4.146
Au 2.073 6.219 4.146
Au 4.146 0.000 4.146
Au 4.146 4.146 4.146
Au 6.219 2.073 4.146
Au 6.219 6.219 4.146
Au 0.000 2.073 6.219
Au 0.000 6.219 6.219
Au 2.073 0.000 6.219
Au 2.073 4.146 6.219
Au 4.146 2.073 6.219
Au 4.146 6.219 6.219
Au 6.219 0.000 6.219
Au 6.219 4.146 6.219
Au 0.000 0.000 8.292
Au 0.000 4.146 8.292
Au 2.073 2.073 8.292
Au 2.073 6.219 8.292
Au 4.146 0.000 8.292
Au 4.146 4.146 8.292
Au 6.219 2.073 8.292
Au 6.219 6.219 8.292
Au 0.000 2.073 10.365
Au 0.000 6.219 10.365
Au 2.073 0.000 10.365
Au 2.073 4.146 10.365
Au 4.146 2.073 10.365
Au 4.146 6.219 10.365
Au 6.219 0.000 10.365
Au 6.219 4.146 10.365
Au 0.000 0.000 12.438
Au 0.000 4.146 12.438
Au 2.073 2.073 12.438
Au 2.073 6.219 12.438
Au 4.146 0.000 12.438
Au 4.146 4.146 12.438
Au 6.219 2.073 12.438
Au 6.219 6.219 12.438
S 4.146 2.073 14.245
C 4.149 2.077 16.006
H 2.047 2.103 16.190
H 6.244 2.103 16.196
C 2.940 2.083 16.707
C 5.348 2.083 16.707
C 2.933 2.061 18.130
C 5.341 2.061 18.130
H 2.037 2.041 18.641
H 6.234 2.041 18.647
C 4.132 2.067 18.830
S 4.146 2.073 20.592
Au 0.000 0.000 22.399
Au 0.000 4.146 22.399
Au 2.073 2.073 22.399
Au 2.073 6.219 22.399
Au 4.146 0.000 22.399
Au 4.146 4.146 22.399
Au 6.219 2.073 22.399
Au 6.219 6.219 22.399
Au 0.000 2.073 24.472
Au 0.000 6.219 24.472
Au 2.073 0.000 24.472
Au 2.073 4.146 24.472
Au 4.146 2.073 24.472
Au 4.146 6.219 24.472
Au 6.219 0.000 24.472
Au 6.219 4.146 24.472
Au 0.000 0.000 26.545
Au 0.000 4.146 26.545
Au 2.073 2.073 26.545
Au 2.073 6.219 26.545
Au 4.146 0.000 26.545
Au 4.146 4.146 26.545
Au 6.219 2.073 26.545
Au 6.219 6.219 26.545
Au 0.000 2.073 28.618
Au 0.000 6.219 28.618
Au 2.073 0.000 28.618
Au 2.073 4.146 28.618
Au 4.146 2.073 28.618
Au 4.146 6.219 28.618
Au 6.219 0.000 28.618
Au 6.219 4.146 28.618
Au 0.000 0.000 30.691
Au 0.000 4.146 30.691
Au 2.073 2.073 30.691
Au 2.073 6.219 30.691
Au 4.146 0.000 30.691
Au 4.146 4.146 30.691
Au 6.219 2.073 30.691
Au 6.219 6.219 30.691
Au 0.000 2.073 32.764
Au 0.000 6.219 32.764
Au 2.073 0.000 32.764
Au 2.073 4.146 32.764
Au 4.146 2.073 32.764
Au 4.146 6.219 32.764
Au 6.219 0.000 32.764
Au 6.219 4.146 32.764
