116   
   
Au 0.000 0.000 0.000
Au 0.000 4.146 0.000
Au 2.073 2.073 0.000
Au 2.073 6.219 0.000
Au 4.146 0.000 0.000
Au 4.146 4.146 0.000
Au 6.219 2.073 0.000
Au 6.219 6.219 0.000
Au 0.000 2.073 2.073
Au 0.000 6.219 2.073
Au 2.073 0.000 2.073
Au 2.073 4.146 2.073
Au 4.146 2.073 2.073
Au 4.146 6.219 2.073
Au 6.219 0.000 2.073
Au 6.219 4.146 2.073
Au 0.000 0.000 4.146
Au 0.000 4.146 4.146
Au 2.073 2.073 4.146
Au 2.073 6.219 4.146
Au 4.146 0.000 4.146
Au 4.146 4.146 4.146
Au 6.219 2.073 4.146
Au 6.219 6.219 4.146
Au 0.000 2.073 6.219
Au 0.000 6.219 6.219
Au 2.073 0.000 6.219
Au 2.073 4.146 6.219
Au 4.146 2.073 6.219
Au 4.146 6.219 6.219
Au 6.219 0.000 6.219
Au 6.219 4.146 6.219
Au 0.000 0.000 8.292
Au 0.000 4.146 8.292
Au 2.073 2.073 8.292
Au 2.073 6.219 8.292
Au 4.146 0.000 8.292
Au 4.146 4.146 8.292
Au 6.219 2.073 8.292
Au 6.219 6.219 8.292
Au 0.000 2.073 10.365
Au 0.000 6.219 10.365
Au 2.073 0.000 10.365
Au 2.073 4.146 10.365
Au 4.146 2.073 10.365
Au 4.146 6.219 10.365
Au 6.219 0.000 10.365
Au 6.219 4.146 10.365
Au 0.000 0.000 12.438
Au 0.000 4.146 12.438
Au 2.073 2.073 12.438
Au 2.073 6.219 12.438
Au 4.146 0.000 12.438
Au 4.146 4.146 12.438
Au 6.219 2.073 12.438
Au 6.219 6.219 12.438
S 4.146 2.073 14.007
C 4.149 2.077 15.769
H 2.047 2.103 15.952
H 6.244 2.103 15.958
C 2.940 2.083 16.469
C 5.348 2.083 16.469
C 2.933 2.061 17.892
C 5.341 2.061 17.892
H 2.037 2.041 18.403
H 6.234 2.041 18.409
C 4.132 2.067 18.593
S 4.146 2.073 20.354
Au 0.000 0.000 21.923
Au 0.000 4.146 21.923
Au 2.073 2.073 21.923
Au 2.073 6.219 21.923
Au 4.146 0.000 21.923
Au 4.146 4.146 21.923
Au 6.219 2.073 21.923
Au 6.219 6.219 21.923
Au 0.000 2.073 23.996
Au 0.000 6.219 23.996
Au 2.073 0.000 23.996
Au 2.073 4.146 23.996
Au 4.146 2.073 23.996
Au 4.146 6.219 23.996
Au 6.219 0.000 23.996
Au 6.219 4.146 23.996
Au 0.000 0.000 26.069
Au 0.000 4.146 26.069
Au 2.073 2.073 26.069
Au 2.073 6.219 26.069
Au 4.146 0.000 26.069
Au 4.146 4.146 26.069
Au 6.219 2.073 26.069
Au 6.219 6.219 26.069
Au 0.000 2.073 28.142
Au 0.000 6.219 28.142
Au 2.073 0.000 28.142
Au 2.073 4.146 28.142
Au 4.146 2.073 28.142
Au 4.146 6.219 28.142
Au 6.219 0.000 28.142
Au 6.219 4.146 28.142
Au 0.000 0.000 30.215
Au 0.000 4.146 30.215
Au 2.073 2.073 30.215
Au 2.073 6.219 30.215
Au 4.146 0.000 30.215
Au 4.146 4.146 30.215
Au 6.219 2.073 30.215
Au 6.219 6.219 30.215
Au 0.000 2.073 32.288
Au 0.000 6.219 32.288
Au 2.073 0.000 32.288
Au 2.073 4.146 32.288
Au 4.146 2.073 32.288
Au 4.146 6.219 32.288
Au 6.219 0.000 32.288
Au 6.219 4.146 32.288
